                                   MODFLOW 6
                U.S. GEOLOGICAL SURVEY MODULAR HYDROLOGIC MODEL
                          GROUNDWATER FLOW MODEL (GWF)
                            VERSION 6.2.0 10/22/2020

   MODFLOW 6 compiled Oct 22 2020 09:26:42 with IFORT compiler (ver. 19.10.2)

This software has been approved for release by the U.S. Geological 
Survey (USGS). Although the software has been subjected to rigorous 
review, the USGS reserves the right to update the software as needed 
pursuant to further analysis and review. No warranty, expressed or 
implied, is made by the USGS or the U.S. Government as to the 
functionality of the software and related material nor shall the 
fact of release constitute any such warranty. Furthermore, the 
software is released on condition that neither the USGS nor the U.S. 
Government shall be held liable for any damages resulting from its 
authorized or unauthorized use. Also refer to the USGS Water 
Resources Software User Rights Notice for complete use, copyright, 
and distribution information.


System command used to initiate simulation:
mf6

MODFLOW was compiled using uniform precision.

Real Variables
  KIND: 8
  TINY (smallest non-zero value):    2.225074-308
  HUGE (largest value):    1.797693+308
  PRECISION: 15
  BIT SIZE: 64

Integer Variables
  KIND: 4
  HUGE (largest value): 2147483647
  BIT SIZE: 32

Long Integer Variables
  KIND: 8
  HUGE (largest value): 9223372036854775807
  BIT SIZE: 64

Logical Variables
  KIND: 4
  BIT SIZE: 32
 

 OPENED heathcote.dis
 FILE TYPE:DIS6                   UNIT 1005   STATUS:OLD                 
 FORMAT:FORMATTED              ACCESS:SEQUENTIAL          
 ACTION:READ                


 OPENED heathcote.npf
 FILE TYPE:NPF6                   UNIT 1006   STATUS:OLD                 
 FORMAT:FORMATTED              ACCESS:SEQUENTIAL          
 ACTION:READ                


 OPENED heathcote.chd
 FILE TYPE:CHD6                   UNIT 1007   STATUS:OLD                 
 FORMAT:FORMATTED              ACCESS:SEQUENTIAL          
 ACTION:READ                


 OPENED heathcote.rch
 FILE TYPE:RCH6                   UNIT 1008   STATUS:OLD                 
 FORMAT:FORMATTED              ACCESS:SEQUENTIAL          
 ACTION:READ                


 OPENED heathcote.oc
 FILE TYPE:OC6                    UNIT 1009   STATUS:OLD                 
 FORMAT:FORMATTED              ACCESS:SEQUENTIAL          
 ACTION:READ                


 OPENED heathcote.ic
 FILE TYPE:IC6                    UNIT 1010   STATUS:OLD                 
 FORMAT:FORMATTED              ACCESS:SEQUENTIAL          
 ACTION:READ                


 OPENED heathcote.sto
 FILE TYPE:STO6                   UNIT 1011   STATUS:OLD                 
 FORMAT:FORMATTED              ACCESS:SEQUENTIAL          
 ACTION:READ                


 OPENED heathcote.wel
 FILE TYPE:WEL6                   UNIT 1012   STATUS:OLD                 
 FORMAT:FORMATTED              ACCESS:SEQUENTIAL          
 ACTION:READ                


 OPENED heathcote.obs
 FILE TYPE:OBS6                   UNIT 1013   STATUS:OLD                 
 FORMAT:FORMATTED              ACCESS:SEQUENTIAL          
 ACTION:READ                

 NAMEFILE OPTIONS:
    FLOWS WILL BE SAVED TO BUDGET FILE SPECIFIED IN OUTPUT CONTROL

 DIS -- STRUCTURED GRID DISCRETIZATION PACKAGE, VERSION 2 : 3/27/2014 - INPUT READ FROM UNIT 1005


 # File generated by Flopy version 3.3.3 on 07/19/2021 at 15:11:13.
 PROCESSING DISCRETIZATION OPTIONS
    XORIGIN SPECIFIED AS     0.00000000000000    
    YORIGIN SPECIFIED AS    -4000.00000000000    
 END OF DISCRETIZATION OPTIONS
 MODEL LENGTH UNIT IS UNDEFINED
 PROCESSING DISCRETIZATION DIMENSIONS
    NLAY =       3
    NROW =      40
    NCOL =      40
 END OF DISCRETIZATION DIMENSIONS
 PROCESSING GRIDDATA

                     DELR =   100.0000    

                     DELC =   100.0000    

   MODEL LAYER BOTTOM EL. =  -5.000000     FOR LAYER 1

   MODEL LAYER BOTTOM EL. =  -60.00000     FOR LAYER 2

   MODEL LAYER BOTTOM EL. =  -90.00000     FOR LAYER 3
 END PROCESSING GRIDDATA

 THE SPECIFIED IDOMAIN RESULTS IN A REDUCED NUMBER OF CELLS.
 NUMBER OF USER NODES: 4800
 NUMBER OF NODES IN SOLUTION: 3696



 NPF -- NODE PROPERTY FLOW PACKAGE, VERSION 1, 3/30/2015 INPUT READ FROM UNIT 1006


 # File generated by Flopy version 3.3.3 on 07/19/2021 at 15:11:13.
 PROCESSING NPF OPTIONS
 END OF NPF OPTIONS

 WEL   -- WEL PACKAGE, VERSION 8, 2/22/2014 INPUT READ FROM UNIT 1012
 # File generated by Flopy version 3.3.3 on 07/19/2021 at 15:11:13.

 PROCESSING WEL OPTIONS
 END OF WEL OPTIONS

 PROCESSING WEL DIMENSIONS
    MAXBOUND =       1
 END OF WEL DIMENSIONS

 RCH   -- RCH PACKAGE, VERSION 8, 2/22/2014 INPUT READ FROM UNIT 1008
 # File generated by Flopy version 3.3.3 on 07/19/2021 at 15:11:13.

 PROCESSING RCH OPTIONS
 END OF RCH OPTIONS

 PROCESSING RCH DIMENSIONS
    MAXBOUND =    1232
 END OF RCH DIMENSIONS

 CHD   -- CHD PACKAGE, VERSION 8, 2/22/2014 INPUT READ FROM UNIT 1007
 # File generated by Flopy version 3.3.3 on 07/19/2021 at 15:11:13.

 PROCESSING CHD OPTIONS
 END OF CHD OPTIONS

 PROCESSING CHD DIMENSIONS
    MAXBOUND =      56
 END OF CHD DIMENSIONS

 IC -- INITIAL CONDITIONS PACKAGE, VERSION 8, 3/28/2015 INPUT READ FROM UNIT 1010
 # File generated by Flopy version 3.3.3 on 07/19/2021 at 15:11:13.
 PROCESSING GRIDDATA

     INITIAL HEAD =   0.000000     FOR LAYER 1

     INITIAL HEAD =   0.000000     FOR LAYER 2

     INITIAL HEAD =   0.000000     FOR LAYER 3
 END PROCESSING GRIDDATA
 PROCESSING GRIDDATA

                ICELLTYPE = 1 FOR LAYER 1

                ICELLTYPE = 0 FOR LAYER 2

                ICELLTYPE = 0 FOR LAYER 3

                        K =  0.2000000E-03 FOR LAYER 1

                        K =  0.1000000E-03 FOR LAYER 2

                      K22 =  0.2000000E-03 FOR LAYER 1

                      K22 =  0.1000000E-03 FOR LAYER 2

                      K33 =  0.2000000E-04 FOR LAYER 1

                      K33 =  0.1000000E-04 FOR LAYER 2
 END PROCESSING GRIDDATA

 STO -- STORAGE PACKAGE, VERSION 1, 5/19/2014 INPUT READ FROM UNIT 1011


 # File generated by Flopy version 3.3.3 on 07/19/2021 at 15:11:13.
 PROCESSING STORAGE OPTIONS
    CELL-BY-CELL FLOW INFORMATION WILL BE SAVED TO BINARY FILE WHENEVER ICBCFL IS NOT ZERO.
 END OF STORAGE OPTIONS
 PROCESSING GRIDDATA

                 ICONVERT = 1

         SPECIFIC STORAGE FOR LAYER 1

               1          2          3          4          5          6          7          8          9         10         11
              12         13         14         15         16         17         18         19         20         21         22
              23         24         25         26         27         28         29         30         31         32         33
              34         35         36         37         38         39         40
 .............................................................................................................................
   1   1.000E-06  1.000E-06  1.000E-06  1.000E-06  1.000E-06  1.000E-06  1.000E-06  1.000E-06  1.000E-06  1.000E-06  1.000E-06
       1.000E-06  1.000E-06  1.000E-06  1.000E-06  1.000E-06  1.000E-06  1.000E-06  1.000E-06  1.000E-06  1.000E-06  1.000E-06
       1.000E-06  1.000E-06  1.000E-06  1.000E-06  1.000E-06  1.000E-06  1.000E-06  1.000E-06  1.000E-06  1.000E-06  1.000E-06
       1.000E-06  1.000E-06  1.000E-06  1.000E-06  1.000E-06  1.000E-06  1.000E-06
   2   1.000E-06  1.000E-06  1.000E-06  1.000E-06  1.000E-06  1.000E-06  1.000E-06  1.000E-06  1.000E-06  1.000E-06  1.000E-06
       1.000E-06  1.000E-06  1.000E-06  1.000E-06  1.000E-06  1.000E-06  1.000E-06  1.000E-06  1.000E-06  1.000E-06  1.000E-06
       1.000E-06  1.000E-06  1.000E-06  1.000E-06  1.000E-06  1.000E-06  1.000E-06  1.000E-06  1.000E-06  1.000E-06  1.000E-06
       1.000E-06  1.000E-06  1.000E-06  1.000E-06  1.000E-06  1.000E-06  1.000E-06
   3   1.000E-06  1.000E-06  1.000E-06  1.000E-06  1.000E-06  1.000E-06  1.000E-06  1.000E-06  1.000E-06  1.000E-06  1.000E-06
       1.000E-06  1.000E-06  1.000E-06  1.000E-06  1.000E-06  1.000E-06  1.000E-06  1.000E-06  1.000E-06  1.000E-06  1.000E-06
       1.000E-06  1.000E-06  1.000E-06  1.000E-06  1.000E-06  1.000E-06  1.000E-06  1.000E-06  1.000E-06  1.000E-06  1.000E-06
       1.000E-06  1.000E-06  1.000E-06  1.000E-06  1.000E-06  1.000E-06  1.000E-06
   4   1.000E-06  1.000E-06  1.000E-06  1.000E-06  1.000E-06  1.000E-06  1.000E-06  1.000E-06  1.000E-06  1.000E-06  1.000E-06
       1.000E-06  1.000E-06  1.000E-06  1.000E-06  1.000E-06  1.000E-06  1.000E-06  1.000E-06  1.000E-06  1.000E-06  1.000E-06
       1.000E-06  1.000E-06  1.000E-06  1.000E-06  1.000E-06  1.000E-06  1.000E-06  1.000E-06  1.000E-06  1.000E-06  1.000E-06
       1.000E-06  1.000E-06  1.000E-06  1.000E-06  1.000E-06  1.000E-06  1.000E-06
   5   1.000E-06  1.000E-06  1.000E-06  1.000E-06  1.000E-06  1.000E-06  1.000E-06  1.000E-06  1.000E-06  1.000E-06  1.000E-06
       1.000E-06  1.000E-06  1.000E-06  1.000E-06  1.000E-06  1.000E-06  1.000E-06  1.000E-06  1.000E-06  1.000E-06  1.000E-06
       1.000E-06  1.000E-06  1.000E-06  1.000E-06  1.000E-06  1.000E-06  1.000E-06  1.000E-06  1.000E-06  1.000E-06  1.000E-06
       1.000E-06  1.000E-06  1.000E-06  1.000E-06  1.000E-06  1.000E-06  1.000E-06
   6   1.000E-06  1.000E-06  1.000E-06  1.000E-06  1.000E-06  1.000E-06  1.000E-06  1.000E-06  1.000E-06  1.000E-06  1.000E-06
       1.000E-06  1.000E-06  1.000E-06  1.000E-06  1.000E-06  1.000E-06  1.000E-06  1.000E-06  1.000E-06  1.000E-06  1.000E-06
       1.000E-06  1.000E-06  1.000E-06  1.000E-06  1.000E-06  1.000E-06  1.000E-06  1.000E-06  1.000E-06  1.000E-06  1.000E-06
       1.000E-06  1.000E-06  1.000E-06  1.000E-06  1.000E-06  1.000E-06  1.000E-06
   7   1.000E-06  1.000E-06  1.000E-06  1.000E-06  1.000E-06  1.000E-06  1.000E-06  1.000E-06  1.000E-06  1.000E-06  1.000E-06
       1.000E-06  1.000E-06  1.000E-06  1.000E-06  1.000E-06  1.000E-06  1.000E-06  1.000E-06  1.000E-06  1.000E-06  1.000E-06
       1.000E-06  1.000E-06  1.000E-06  1.000E-06  1.000E-06  1.000E-06  1.000E-06  1.000E-06  1.000E-06  1.000E-06  1.000E-06
       1.000E-06  1.000E-06  1.000E-06  1.000E-06  1.000E-06  1.000E-06  1.000E-06
   8   1.000E-06  1.000E-06  1.000E-06  1.000E-06  1.000E-06  1.000E-06  1.000E-06  1.000E-06  1.000E-06  1.000E-06  1.000E-06
       1.000E-06  1.000E-06  1.000E-06  1.000E-06  1.000E-06  1.000E-06  1.000E-06  1.000E-06  1.000E-06  1.000E-06  1.000E-06
       1.000E-06  1.000E-06  1.000E-06  1.000E-06  1.000E-06  1.000E-06  1.000E-06  1.000E-06  1.000E-06  1.000E-06  1.000E-06
       1.000E-06  1.000E-06  1.000E-06  1.000E-06  1.000E-06  1.000E-06  1.000E-06
   9   1.000E-06  1.000E-06  1.000E-06  1.000E-06  1.000E-06  1.000E-06  1.000E-06  1.000E-06  1.000E-06  1.000E-06  1.000E-06
       1.000E-06  1.000E-06  1.000E-06  1.000E-06  1.000E-06  1.000E-06  1.000E-06  1.000E-06  1.000E-06  1.000E-06  1.000E-06
       1.000E-06  1.000E-06  1.000E-06  1.000E-06  1.000E-06  1.000E-06  1.000E-06  1.000E-06  1.000E-06  1.000E-06  1.000E-06
       1.000E-06  1.000E-06  1.000E-06  1.000E-06  1.000E-06  1.000E-06  1.000E-06
  10   1.000E-06  1.000E-06  1.000E-06  1.000E-06  1.000E-06  1.000E-06  1.000E-06  1.000E-06  1.000E-06  1.000E-06  1.000E-06
       1.000E-06  1.000E-06  1.000E-06  1.000E-06  1.000E-06  1.000E-06  1.000E-06  1.000E-06  1.000E-06  1.000E-06  1.000E-06
       1.000E-06  1.000E-06  1.000E-06  1.000E-06  1.000E-06  1.000E-06  1.000E-06  1.000E-06  1.000E-06  1.000E-06  1.000E-06
       1.000E-06  1.000E-06  1.000E-06  1.000E-06  1.000E-06  1.000E-06  1.000E-06
  11   1.000E-06  1.000E-06  1.000E-06  1.000E-06  1.000E-06  1.000E-06  1.000E-06  1.000E-06  1.000E-06  1.000E-06  1.000E-06
       1.000E-06  1.000E-06  1.000E-06  1.000E-06  1.000E-06  1.000E-06  1.000E-06  1.000E-06  1.000E-06  1.000E-06  1.000E-06
       1.000E-06  1.000E-06  1.000E-06  1.000E-06  1.000E-06  1.000E-06  1.000E-06  1.000E-06  1.000E-06  1.000E-06  1.000E-06
       1.000E-06  1.000E-06  1.000E-06  1.000E-06  1.000E-06  1.000E-06  1.000E-06
  12   1.000E-06  1.000E-06  1.000E-06  1.000E-06  1.000E-06  1.000E-06  1.000E-06  1.000E-06  1.000E-06  1.000E-06  1.000E-06
       1.000E-06  1.000E-06  1.000E-06  1.000E-06  1.000E-06  1.000E-06  1.000E-06  1.000E-06  1.000E-06  1.000E-06  1.000E-06
       1.000E-06  1.000E-06  1.000E-06  1.000E-06  1.000E-06  1.000E-06  1.000E-06  1.000E-06  1.000E-06  1.000E-06  1.000E-06
       1.000E-06  1.000E-06  1.000E-06  1.000E-06  1.000E-06  1.000E-06  1.000E-06
  13   1.000E-06  1.000E-06  1.000E-06  1.000E-06  1.000E-06  1.000E-06  1.000E-06  1.000E-06  1.000E-06  1.000E-06  1.000E-06
       1.000E-06  1.000E-06  1.000E-06  1.000E-06  1.000E-06  1.000E-06  1.000E-06  1.000E-06  1.000E-06  1.000E-06  1.000E-06
       1.000E-06  1.000E-06  1.000E-06  1.000E-06  1.000E-06  1.000E-06  1.000E-06  1.000E-06  1.000E-06  1.000E-06  1.000E-06
       1.000E-06  1.000E-06  1.000E-06  1.000E-06  1.000E-06  1.000E-06  1.000E-06
  14   1.000E-06  1.000E-06  1.000E-06  1.000E-06  1.000E-06  1.000E-06  1.000E-06  1.000E-06  1.000E-06  1.000E-06  1.000E-06
       1.000E-06  1.000E-06  1.000E-06  1.000E-06  1.000E-06  1.000E-06  1.000E-06  1.000E-06  1.000E-06  1.000E-06  1.000E-06
       1.000E-06  1.000E-06  1.000E-06  1.000E-06  1.000E-06  1.000E-06  1.000E-06  1.000E-06  1.000E-06  1.000E-06  1.000E-06
       1.000E-06  1.000E-06  1.000E-06  1.000E-06  1.000E-06  1.000E-06  1.000E-06
  15   1.000E-06  1.000E-06  1.000E-06  1.000E-06  1.000E-06  1.000E-06  1.000E-06  1.000E-06  1.000E-06  1.000E-06  1.000E-06
       1.000E-06  1.000E-06  1.000E-06  1.000E-06  1.000E-06  1.000E-06  1.000E-06  1.000E-06  1.000E-06  1.000E-06  1.000E-06
       1.000E-06  1.000E-06  1.000E-06  1.000E-06  1.000E-06  1.000E-06  1.000E-06  1.000E-06  1.000E-06  1.000E-06  1.000E-06
       1.000E-06  1.000E-06  1.000E-06  1.000E-06  1.000E-06  1.000E-06  1.000E-06
  16   1.000E-06  1.000E-06  1.000E-06  1.000E-06  1.000E-06  1.000E-06  1.000E-06  1.000E-06  1.000E-06  1.000E-06  1.000E-06
       1.000E-06  1.000E-06  1.000E-06  1.000E-06  1.000E-06  1.000E-06  1.000E-06  1.000E-06  1.000E-06  1.000E-06  1.000E-06
       1.000E-06  1.000E-06  1.000E-06  1.000E-06  1.000E-06  1.000E-06  1.000E-06  1.000E-06  1.000E-06  1.000E-06  1.000E-06
       1.000E-06  1.000E-06  1.000E-06  1.000E-06  1.000E-06  1.000E-06  1.000E-06
  17   1.000E-06  1.000E-06  1.000E-06  1.000E-06  1.000E-06  1.000E-06  1.000E-06  1.000E-06  1.000E-06  1.000E-06  1.000E-06
       1.000E-06  1.000E-06  1.000E-06  1.000E-06  1.000E-06  1.000E-06  1.000E-06  1.000E-06  1.000E-06  1.000E-06  1.000E-06
       1.000E-06  1.000E-06  1.000E-06  1.000E-06  1.000E-06  1.000E-06  1.000E-06  1.000E-06  1.000E-06  1.000E-06  1.000E-06
       1.000E-06  1.000E-06  1.000E-06  1.000E-06  1.000E-06  1.000E-06  1.000E-06
  18   1.000E-06  1.000E-06  1.000E-06  1.000E-06  1.000E-06  1.000E-06  1.000E-06  1.000E-06  1.000E-06  1.000E-06  1.000E-06
       1.000E-06  1.000E-06  1.000E-06  1.000E-06  1.000E-06  1.000E-06  1.000E-06  1.000E-06  1.000E-06  1.000E-06  1.000E-06
       1.000E-06  1.000E-06  1.000E-06  1.000E-06  1.000E-06  1.000E-06  1.000E-06  1.000E-06  1.000E-06  1.000E-06  1.000E-06
       1.000E-06  1.000E-06  1.000E-06  1.000E-06  1.000E-06  1.000E-06  1.000E-06
  19   1.000E-06  1.000E-06  1.000E-06  1.000E-06  1.000E-06  1.000E-06  1.000E-06  1.000E-06  1.000E-06  1.000E-06  1.000E-06
       1.000E-06  1.000E-06  1.000E-06  1.000E-06  1.000E-06  1.000E-06  1.000E-06  1.000E-06  1.000E-06  1.000E-06  1.000E-06
       1.000E-06  1.000E-06  1.000E-06  1.000E-06  1.000E-06  1.000E-06  1.000E-06  1.000E-06  1.000E-06  1.000E-06  1.000E-06
       1.000E-06  1.000E-06  1.000E-06  1.000E-06  1.000E-06  1.000E-06  1.000E-06
  20   1.000E-06  1.000E-06  1.000E-06  1.000E-06  1.000E-06  1.000E-06  1.000E-06  1.000E-06  1.000E-06  1.000E-06  1.000E-06
       1.000E-06  1.000E-06  1.000E-06  1.000E-06  1.000E-06  1.000E-06  1.000E-06  1.000E-06  1.000E-06  1.000E-06  1.000E-06
       1.000E-06  1.000E-06  1.000E-06  1.000E-06  1.000E-06  1.000E-06  1.000E-06  1.000E-06  1.000E-06  1.000E-06  1.000E-06
       1.000E-06  1.000E-06  1.000E-06  1.000E-06  1.000E-06  1.000E-06  1.000E-06
  21   1.000E-06  1.000E-06  1.000E-06  1.000E-06  1.000E-06  1.000E-06  1.000E-06  1.000E-06  1.000E-06  1.000E-06  1.000E-06
       1.000E-06  1.000E-06  1.000E-06  1.000E-06  1.000E-06  1.000E-06  1.000E-06  1.000E-06  1.000E-06  1.000E-06  1.000E-06
       1.000E-06  1.000E-06  1.000E-06  1.000E-06  1.000E-06  1.000E-06  1.000E-06  1.000E-06  1.000E-06  1.000E-06  1.000E-06
       1.000E-06  1.000E-06  1.000E-06  1.000E-06  1.000E-06  1.000E-06  1.000E-06
  22   1.000E-06  1.000E-06  1.000E-06  1.000E-06  1.000E-06  1.000E-06  1.000E-06  1.000E-06  1.000E-06  1.000E-06  1.000E-06
       1.000E-06  1.000E-06  1.000E-06  1.000E-06  1.000E-06  1.000E-06  1.000E-06  1.000E-06  1.000E-06  1.000E-06  1.000E-06
       1.000E-06  1.000E-06  1.000E-06  1.000E-06  1.000E-06  1.000E-06  1.000E-06  1.000E-06  1.000E-06  1.000E-06  1.000E-06
       1.000E-06  1.000E-06  1.000E-06  1.000E-06  1.000E-06  1.000E-06  1.000E-06
  23   1.000E-06  1.000E-06  1.000E-06  1.000E-06  1.000E-06  1.000E-06  1.000E-06  1.000E-06  1.000E-06  1.000E-06  1.000E-06
       1.000E-06  1.000E-06  1.000E-06  1.000E-06  1.000E-06  1.000E-06  1.000E-06  1.000E-06  1.000E-06  1.000E-06  1.000E-06
       1.000E-06  1.000E-06  1.000E-06  1.000E-06  1.000E-06  1.000E-06  1.000E-06  1.000E-06  1.000E-06  1.000E-06  1.000E-06
       1.000E-06  1.000E-06  1.000E-06  1.000E-06  1.000E-06  1.000E-06  1.000E-06
  24   1.000E-06  1.000E-06  1.000E-06  1.000E-06  1.000E-06  1.000E-06  1.000E-06  1.000E-06  1.000E-06  1.000E-06  1.000E-06
       1.000E-06  1.000E-06  1.000E-06  1.000E-06  1.000E-06  1.000E-06  1.000E-06  1.000E-06  1.000E-06  1.000E-06  1.000E-06
       1.000E-06  1.000E-06  1.000E-06  1.000E-06  1.000E-06  1.000E-06  1.000E-06  1.000E-06  1.000E-06  1.000E-06  1.000E-06
       1.000E-06  1.000E-06  1.000E-06  1.000E-06  1.000E-06  1.000E-06  1.000E-06
  25   1.000E-06  1.000E-06  1.000E-06  1.000E-06  1.000E-06  1.000E-06  1.000E-06  1.000E-06  1.000E-06  1.000E-06  1.000E-06
       1.000E-06  1.000E-06  1.000E-06  1.000E-06  1.000E-06  1.000E-06  1.000E-06  1.000E-06  1.000E-06  1.000E-06  1.000E-06
       1.000E-06  1.000E-06  1.000E-06  1.000E-06  1.000E-06  1.000E-06  1.000E-06  1.000E-06  1.000E-06  1.000E-06  1.000E-06
       1.000E-06  1.000E-06  1.000E-06  1.000E-06  1.000E-06  1.000E-06  1.000E-06
  26   1.000E-06  1.000E-06  1.000E-06  1.000E-06  1.000E-06  1.000E-06  1.000E-06  1.000E-06  1.000E-06  1.000E-06  1.000E-06
       1.000E-06  1.000E-06  1.000E-06  1.000E-06  1.000E-06  1.000E-06  1.000E-06  1.000E-06  1.000E-06  1.000E-06  1.000E-06
       1.000E-06  1.000E-06  1.000E-06  1.000E-06  1.000E-06  1.000E-06  1.000E-06  1.000E-06  1.000E-06  1.000E-06  1.000E-06
       1.000E-06  1.000E-06  1.000E-06  1.000E-06  1.000E-06  1.000E-06  1.000E-06
  27   1.000E-06  1.000E-06  1.000E-06  1.000E-06  1.000E-06  1.000E-06  1.000E-06  1.000E-06  1.000E-06  1.000E-06  1.000E-06
       1.000E-06  1.000E-06  1.000E-06  1.000E-06  1.000E-06  1.000E-06  1.000E-06  1.000E-06  1.000E-06  1.000E-06  1.000E-06
       1.000E-06  1.000E-06  1.000E-06  1.000E-06  1.000E-06  1.000E-06  1.000E-06  1.000E-06  1.000E-06  1.000E-06  1.000E-06
       1.000E-06  1.000E-06  1.000E-06  1.000E-06  1.000E-06  1.000E-06  1.000E-06
  28   1.000E-06  1.000E-06  1.000E-06  1.000E-06  1.000E-06  1.000E-06  1.000E-06  1.000E-06  1.000E-06  1.000E-06  1.000E-06
       1.000E-06  1.000E-06  1.000E-06  1.000E-06  1.000E-06  1.000E-06  1.000E-06  1.000E-06  1.000E-06  1.000E-06  1.000E-06
       1.000E-06  1.000E-06  1.000E-06  1.000E-06  1.000E-06  1.000E-06  1.000E-06  1.000E-06  1.000E-06  1.000E-06  1.000E-06
       1.000E-06  1.000E-06  1.000E-06  1.000E-06  1.000E-06  1.000E-06  1.000E-06
  29   1.000E-06  1.000E-06  1.000E-06  1.000E-06  1.000E-06  1.000E-06  1.000E-06  1.000E-06  1.000E-06  1.000E-06  1.000E-06
       1.000E-06  1.000E-06  1.000E-06  1.000E-06  1.000E-06  1.000E-06  1.000E-06  1.000E-06  1.000E-06  1.000E-06  1.000E-06
       1.000E-06  1.000E-06  1.000E-06  1.000E-06  1.000E-06  1.000E-06  1.000E-06  1.000E-06  1.000E-06  1.000E-06  1.000E-06
       1.000E-06  1.000E-06  1.000E-06  1.000E-06  1.000E-06  1.000E-06  1.000E-06
  30   1.000E-06  1.000E-06  1.000E-06  1.000E-06  1.000E-06  1.000E-06  1.000E-06  1.000E-06  1.000E-06  1.000E-06  1.000E-06
       1.000E-06  1.000E-06  1.000E-06  1.000E-06  1.000E-06  1.000E-06  1.000E-06  1.000E-06  1.000E-06  1.000E-06  1.000E-06
       1.000E-06  1.000E-06  1.000E-06  1.000E-06  1.000E-06  1.000E-06  1.000E-06  1.000E-06  1.000E-06  1.000E-06  1.000E-06
       1.000E-06  1.000E-06  1.000E-06  1.000E-06  1.000E-06  1.000E-06  1.000E-06
  31   1.000E-06  1.000E-06  1.000E-06  1.000E-06  1.000E-06  1.000E-06  1.000E-06  1.000E-06  1.000E-06  1.000E-06  1.000E-06
       1.000E-06  1.000E-06  1.000E-06  1.000E-06  1.000E-06  1.000E-06  1.000E-06  1.000E-06  1.000E-06  1.000E-06  1.000E-06
       1.000E-06  1.000E-06  1.000E-06  1.000E-06  1.000E-06  1.000E-06  1.000E-06  1.000E-06  1.000E-06  1.000E-06  1.000E-06
       1.000E-06  1.000E-06  1.000E-06  1.000E-06  1.000E-06  1.000E-06  1.000E-06
  32   1.000E-06  1.000E-06  1.000E-06  1.000E-06  1.000E-06  1.000E-06  1.000E-06  1.000E-06  1.000E-06  1.000E-06  1.000E-06
       1.000E-06  1.000E-06  1.000E-06  1.000E-06  1.000E-06  1.000E-06  1.000E-06  1.000E-06  1.000E-06  1.000E-06  1.000E-06
       1.000E-06  1.000E-06  1.000E-06  1.000E-06  1.000E-06  1.000E-06  1.000E-06  1.000E-06  1.000E-06  1.000E-06  1.000E-06
       1.000E-06  1.000E-06  1.000E-06  1.000E-06  1.000E-06  1.000E-06  1.000E-06
  33   1.000E-06  1.000E-06  1.000E-06  1.000E-06  1.000E-06  1.000E-06  1.000E-06  1.000E-06  1.000E-06  1.000E-06  1.000E-06
       1.000E-06  1.000E-06  1.000E-06  1.000E-06  1.000E-06  1.000E-06  1.000E-06  1.000E-06  1.000E-06  1.000E-06  1.000E-06
       1.000E-06  1.000E-06  1.000E-06  1.000E-06  1.000E-06  1.000E-06  1.000E-06  1.000E-06  1.000E-06  1.000E-06  1.000E-06
       1.000E-06  1.000E-06  1.000E-06  1.000E-06  1.000E-06  1.000E-06  1.000E-06
  34   1.000E-06  1.000E-06  1.000E-06  1.000E-06  1.000E-06  1.000E-06  1.000E-06  1.000E-06  1.000E-06  1.000E-06  1.000E-06
       1.000E-06  1.000E-06  1.000E-06  1.000E-06  1.000E-06  1.000E-06  1.000E-06  1.000E-06  1.000E-06  1.000E-06  1.000E-06
       1.000E-06  1.000E-06  1.000E-06  1.000E-06  1.000E-06  1.000E-06  1.000E-06  1.000E-06  1.000E-06  1.000E-06  1.000E-06
       1.000E-06  1.000E-06  1.000E-06  1.000E-06  1.000E-06  1.000E-06  1.000E-06
  35   1.000E-06  1.000E-06  1.000E-06  1.000E-06  1.000E-06  1.000E-06  1.000E-06  1.000E-06  1.000E-06  1.000E-06  1.000E-06
       1.000E-06  1.000E-06  1.000E-06  1.000E-06  1.000E-06  1.000E-06  1.000E-06  1.000E-06  1.000E-06  1.000E-06  1.000E-06
       1.000E-06  1.000E-06  1.000E-06  1.000E-06  1.000E-06  1.000E-06  1.000E-06  1.000E-06  1.000E-06  1.000E-06  1.000E-06
       1.000E-06  1.000E-06  1.000E-06  1.000E-06  1.000E-06  1.000E-06  1.000E-06
  36   1.000E-06  1.000E-06  1.000E-06  1.000E-06  1.000E-06  1.000E-06  1.000E-06  1.000E-06  1.000E-06  1.000E-06  1.000E-06
       1.000E-06  1.000E-06  1.000E-06  1.000E-06  1.000E-06  1.000E-06  1.000E-06  1.000E-06  1.000E-06  1.000E-06  1.000E-06
       1.000E-06  1.000E-06  1.000E-06  1.000E-06  1.000E-06  1.000E-06  1.000E-06  1.000E-06  1.000E-06  1.000E-06  1.000E-06
       1.000E-06  1.000E-06  1.000E-06  1.000E-06  1.000E-06  1.000E-06  1.000E-06
  37   1.000E-06  1.000E-06  1.000E-06  1.000E-06  1.000E-06  1.000E-06  1.000E-06  1.000E-06  1.000E-06  1.000E-06  1.000E-06
       1.000E-06  1.000E-06  1.000E-06  1.000E-06  1.000E-06  1.000E-06  1.000E-06  1.000E-06  1.000E-06  1.000E-06  1.000E-06
       1.000E-06  1.000E-06  1.000E-06  1.000E-06  1.000E-06  1.000E-06  1.000E-06  1.000E-06  1.000E-06  1.000E-06  1.000E-06
       1.000E-06  1.000E-06  1.000E-06  1.000E-06  1.000E-06  1.000E-06  1.000E-06
  38   1.000E-06  1.000E-06  1.000E-06  1.000E-06  1.000E-06  1.000E-06  1.000E-06  1.000E-06  1.000E-06  1.000E-06  1.000E-06
       1.000E-06  1.000E-06  1.000E-06  1.000E-06  1.000E-06  1.000E-06  1.000E-06  1.000E-06  1.000E-06  1.000E-06  1.000E-06
       1.000E-06  1.000E-06  1.000E-06  1.000E-06  1.000E-06  1.000E-06  1.000E-06  1.000E-06  1.000E-06  1.000E-06  1.000E-06
       1.000E-06  1.000E-06  1.000E-06  1.000E-06  1.000E-06  1.000E-06  1.000E-06
  39   1.000E-06  1.000E-06  1.000E-06  1.000E-06  1.000E-06  1.000E-06  1.000E-06  1.000E-06  1.000E-06  1.000E-06  1.000E-06
       1.000E-06  1.000E-06  1.000E-06  1.000E-06  1.000E-06  1.000E-06  1.000E-06  1.000E-06  1.000E-06  1.000E-06  1.000E-06
       1.000E-06  1.000E-06  1.000E-06  1.000E-06  1.000E-06  1.000E-06  1.000E-06  1.000E-06  1.000E-06  1.000E-06  1.000E-06
       1.000E-06  1.000E-06  1.000E-06  1.000E-06  1.000E-06  1.000E-06  1.000E-06
  40   1.000E-06  1.000E-06  1.000E-06  1.000E-06  1.000E-06  1.000E-06  1.000E-06  1.000E-06  1.000E-06  1.000E-06  1.000E-06
       1.000E-06  1.000E-06  1.000E-06  1.000E-06  1.000E-06  1.000E-06  1.000E-06  1.000E-06  1.000E-06  1.000E-06  1.000E-06
       1.000E-06  1.000E-06  1.000E-06  1.000E-06  1.000E-06  1.000E-06  1.000E-06  1.000E-06  1.000E-06  1.000E-06  1.000E-06
       1.000E-06  1.000E-06  1.000E-06  1.000E-06  1.000E-06  1.000E-06  1.000E-06

         SPECIFIC STORAGE FOR LAYER 2

               1          2          3          4          5          6          7          8          9         10         11
              12         13         14         15         16         17         18         19         20         21         22
              23         24         25         26         27         28         29         30         31         32         33
              34         35         36         37         38         39         40
 .............................................................................................................................
   1   1.000E-06  1.000E-06  1.000E-06  1.000E-06  1.000E-06  1.000E-06  1.000E-06  1.000E-06  1.000E-06  1.000E-06  1.000E-06
       1.000E-06  1.000E-06  1.000E-06  1.000E-06  1.000E-06  1.000E-06  1.000E-06  1.000E-06  1.000E-06  1.000E-06  1.000E-06
       1.000E-06  1.000E-06  1.000E-06  1.000E-06  1.000E-06  1.000E-06  1.000E-06  1.000E-06  1.000E-06  1.000E-06  1.000E-06
       1.000E-06  1.000E-06  1.000E-06  1.000E-06  1.000E-06  1.000E-06  1.000E-06
   2   1.000E-06  1.000E-06  1.000E-06  1.000E-06  1.000E-06  1.000E-06  1.000E-06  1.000E-06  1.000E-06  1.000E-06  1.000E-06
       1.000E-06  1.000E-06  1.000E-06  1.000E-06  1.000E-06  1.000E-06  1.000E-06  1.000E-06  1.000E-06  1.000E-06  1.000E-06
       1.000E-06  1.000E-06  1.000E-06  1.000E-06  1.000E-06  1.000E-06  1.000E-06  1.000E-06  1.000E-06  1.000E-06  1.000E-06
       1.000E-06  1.000E-06  1.000E-06  1.000E-06  1.000E-06  1.000E-06  1.000E-06
   3   1.000E-06  1.000E-06  1.000E-06  1.000E-06  1.000E-06  1.000E-06  1.000E-06  1.000E-06  1.000E-06  1.000E-06  1.000E-06
       1.000E-06  1.000E-06  1.000E-06  1.000E-06  1.000E-06  1.000E-06  1.000E-06  1.000E-06  1.000E-06  1.000E-06  1.000E-06
       1.000E-06  1.000E-06  1.000E-06  1.000E-06  1.000E-06  1.000E-06  1.000E-06  1.000E-06  1.000E-06  1.000E-06  1.000E-06
       1.000E-06  1.000E-06  1.000E-06  1.000E-06  1.000E-06  1.000E-06  1.000E-06
   4   1.000E-06  1.000E-06  1.000E-06  1.000E-06  1.000E-06  1.000E-06  1.000E-06  1.000E-06  1.000E-06  1.000E-06  1.000E-06
       1.000E-06  1.000E-06  1.000E-06  1.000E-06  1.000E-06  1.000E-06  1.000E-06  1.000E-06  1.000E-06  1.000E-06  1.000E-06
       1.000E-06  1.000E-06  1.000E-06  1.000E-06  1.000E-06  1.000E-06  1.000E-06  1.000E-06  1.000E-06  1.000E-06  1.000E-06
       1.000E-06  1.000E-06  1.000E-06  1.000E-06  1.000E-06  1.000E-06  1.000E-06
   5   1.000E-06  1.000E-06  1.000E-06  1.000E-06  1.000E-06  1.000E-06  1.000E-06  1.000E-06  1.000E-06  1.000E-06  1.000E-06
       1.000E-06  1.000E-06  1.000E-06  1.000E-06  1.000E-06  1.000E-06  1.000E-06  1.000E-06  1.000E-06  1.000E-06  1.000E-06
       1.000E-06  1.000E-06  1.000E-06  1.000E-06  1.000E-06  1.000E-06  1.000E-06  1.000E-06  1.000E-06  1.000E-06  1.000E-06
       1.000E-06  1.000E-06  1.000E-06  1.000E-06  1.000E-06  1.000E-06  1.000E-06
   6   1.000E-06  1.000E-06  1.000E-06  1.000E-06  1.000E-06  1.000E-06  1.000E-06  1.000E-06  1.000E-06  1.000E-06  1.000E-06
       1.000E-06  1.000E-06  1.000E-06  1.000E-06  1.000E-06  1.000E-06  1.000E-06  1.000E-06  1.000E-06  1.000E-06  1.000E-06
       1.000E-06  1.000E-06  1.000E-06  1.000E-06  1.000E-06  1.000E-06  1.000E-06  1.000E-06  1.000E-06  1.000E-06  1.000E-06
       1.000E-06  1.000E-06  1.000E-06  1.000E-06  1.000E-06  1.000E-06  1.000E-06
   7   1.000E-06  1.000E-06  1.000E-06  1.000E-06  1.000E-06  1.000E-06  1.000E-06  1.000E-06  1.000E-06  1.000E-06  1.000E-06
       1.000E-06  1.000E-06  1.000E-06  1.000E-06  1.000E-06  1.000E-06  1.000E-06  1.000E-06  1.000E-06  1.000E-06  1.000E-06
       1.000E-06  1.000E-06  1.000E-06  1.000E-06  1.000E-06  1.000E-06  1.000E-06  1.000E-06  1.000E-06  1.000E-06  1.000E-06
       1.000E-06  1.000E-06  1.000E-06  1.000E-06  1.000E-06  1.000E-06  1.000E-06
   8   1.000E-06  1.000E-06  1.000E-06  1.000E-06  1.000E-06  1.000E-06  1.000E-06  1.000E-06  1.000E-06  1.000E-06  1.000E-06
       1.000E-06  1.000E-06  1.000E-06  1.000E-06  1.000E-06  1.000E-06  1.000E-06  1.000E-06  1.000E-06  1.000E-06  1.000E-06
       1.000E-06  1.000E-06  1.000E-06  1.000E-06  1.000E-06  1.000E-06  1.000E-06  1.000E-06  1.000E-06  1.000E-06  1.000E-06
       1.000E-06  1.000E-06  1.000E-06  1.000E-06  1.000E-06  1.000E-06  1.000E-06
   9   1.000E-06  1.000E-06  1.000E-06  1.000E-06  1.000E-06  1.000E-06  1.000E-06  1.000E-06  1.000E-06  1.000E-06  1.000E-06
       1.000E-06  1.000E-06  1.000E-06  1.000E-06  1.000E-06  1.000E-06  1.000E-06  1.000E-06  1.000E-06  1.000E-06  1.000E-06
       1.000E-06  1.000E-06  1.000E-06  1.000E-06  1.000E-06  1.000E-06  1.000E-06  1.000E-06  1.000E-06  1.000E-06  1.000E-06
       1.000E-06  1.000E-06  1.000E-06  1.000E-06  1.000E-06  1.000E-06  1.000E-06
  10   1.000E-06  1.000E-06  1.000E-06  1.000E-06  1.000E-06  1.000E-06  1.000E-06  1.000E-06  1.000E-06  1.000E-06  1.000E-06
       1.000E-06  1.000E-06  1.000E-06  1.000E-06  1.000E-06  1.000E-06  1.000E-06  1.000E-06  1.000E-06  1.000E-06  1.000E-06
       1.000E-06  1.000E-06  1.000E-06  1.000E-06  1.000E-06  1.000E-06  1.000E-06  1.000E-06  1.000E-06  1.000E-06  1.000E-06
       1.000E-06  1.000E-06  1.000E-06  1.000E-06  1.000E-06  1.000E-06  1.000E-06
  11   1.000E-06  1.000E-06  1.000E-06  1.000E-06  1.000E-06  1.000E-06  1.000E-06  1.000E-06  1.000E-06  1.000E-06  1.000E-06
       1.000E-06  1.000E-06  1.000E-06  1.000E-06  1.000E-06  1.000E-06  1.000E-06  1.000E-06  1.000E-06  1.000E-06  1.000E-06
       1.000E-06  1.000E-06  1.000E-06  1.000E-06  1.000E-06  1.000E-06  1.000E-06  1.000E-06  1.000E-06  1.000E-06  1.000E-06
       1.000E-06  1.000E-06  1.000E-06  1.000E-06  1.000E-06  1.000E-06  1.000E-06
  12   1.000E-06  1.000E-06  1.000E-06  1.000E-06  1.000E-06  1.000E-06  1.000E-06  1.000E-06  1.000E-06  1.000E-06  1.000E-06
       1.000E-06  1.000E-06  1.000E-06  1.000E-06  1.000E-06  1.000E-06  1.000E-06  1.000E-06  1.000E-06  1.000E-06  1.000E-06
       1.000E-06  1.000E-06  1.000E-06  1.000E-06  1.000E-06  1.000E-06  1.000E-06  1.000E-06  1.000E-06  1.000E-06  1.000E-06
       1.000E-06  1.000E-06  1.000E-06  1.000E-06  1.000E-06  1.000E-06  1.000E-06
  13   1.000E-06  1.000E-06  1.000E-06  1.000E-06  1.000E-06  1.000E-06  1.000E-06  1.000E-06  1.000E-06  1.000E-06  1.000E-06
       1.000E-06  1.000E-06  1.000E-06  1.000E-06  1.000E-06  1.000E-06  1.000E-06  1.000E-06  1.000E-06  1.000E-06  1.000E-06
       1.000E-06  1.000E-06  1.000E-06  1.000E-06  1.000E-06  1.000E-06  1.000E-06  1.000E-06  1.000E-06  1.000E-06  1.000E-06
       1.000E-06  1.000E-06  1.000E-06  1.000E-06  1.000E-06  1.000E-06  1.000E-06
  14   1.000E-06  1.000E-06  1.000E-06  1.000E-06  1.000E-06  1.000E-06  1.000E-06  1.000E-06  1.000E-06  1.000E-06  1.000E-06
       1.000E-06  1.000E-06  1.000E-06  1.000E-06  1.000E-06  1.000E-06  1.000E-06  1.000E-06  1.000E-06  1.000E-06  1.000E-06
       1.000E-06  1.000E-06  1.000E-06  1.000E-06  1.000E-06  1.000E-06  1.000E-06  1.000E-06  1.000E-06  1.000E-06  1.000E-06
       1.000E-06  1.000E-06  1.000E-06  1.000E-06  1.000E-06  1.000E-06  1.000E-06
  15   1.000E-06  1.000E-06  1.000E-06  1.000E-06  1.000E-06  1.000E-06  1.000E-06  1.000E-06  1.000E-06  1.000E-06  1.000E-06
       1.000E-06  1.000E-06  1.000E-06  1.000E-06  1.000E-06  1.000E-06  1.000E-06  1.000E-06  1.000E-06  1.000E-06  1.000E-06
       1.000E-06  1.000E-06  1.000E-06  1.000E-06  1.000E-06  1.000E-06  1.000E-06  1.000E-06  1.000E-06  1.000E-06  1.000E-06
       1.000E-06  1.000E-06  1.000E-06  1.000E-06  1.000E-06  1.000E-06  1.000E-06
  16   1.000E-06  1.000E-06  1.000E-06  1.000E-06  1.000E-06  1.000E-06  1.000E-06  1.000E-06  1.000E-06  1.000E-06  1.000E-06
       1.000E-06  1.000E-06  1.000E-06  1.000E-06  1.000E-06  1.000E-06  1.000E-06  1.000E-06  1.000E-06  1.000E-06  1.000E-06
       1.000E-06  1.000E-06  1.000E-06  1.000E-06  1.000E-06  1.000E-06  1.000E-06  1.000E-06  1.000E-06  1.000E-06  1.000E-06
       1.000E-06  1.000E-06  1.000E-06  1.000E-06  1.000E-06  1.000E-06  1.000E-06
  17   1.000E-06  1.000E-06  1.000E-06  1.000E-06  1.000E-06  1.000E-06  1.000E-06  1.000E-06  1.000E-06  1.000E-06  1.000E-06
       1.000E-06  1.000E-06  1.000E-06  1.000E-06  1.000E-06  1.000E-06  1.000E-06  1.000E-06  1.000E-06  1.000E-06  1.000E-06
       1.000E-06  1.000E-06  1.000E-06  1.000E-06  1.000E-06  1.000E-06  1.000E-06  1.000E-06  1.000E-06  1.000E-06  1.000E-06
       1.000E-06  1.000E-06  1.000E-06  1.000E-06  1.000E-06  1.000E-06  1.000E-06
  18   1.000E-06  1.000E-06  1.000E-06  1.000E-06  1.000E-06  1.000E-06  1.000E-06  1.000E-06  1.000E-06  1.000E-06  1.000E-06
       1.000E-06  1.000E-06  1.000E-06  1.000E-06  1.000E-06  1.000E-06  1.000E-06  1.000E-06  1.000E-06  1.000E-06  1.000E-06
       1.000E-06  1.000E-06  1.000E-06  1.000E-06  1.000E-06  1.000E-06  1.000E-06  1.000E-06  1.000E-06  1.000E-06  1.000E-06
       1.000E-06  1.000E-06  1.000E-06  1.000E-06  1.000E-06  1.000E-06  1.000E-06
  19   1.000E-06  1.000E-06  1.000E-06  1.000E-06  1.000E-06  1.000E-06  1.000E-06  1.000E-06  1.000E-06  1.000E-06  1.000E-06
       1.000E-06  1.000E-06  1.000E-06  1.000E-06  1.000E-06  1.000E-06  1.000E-06  1.000E-06  1.000E-06  1.000E-06  1.000E-06
       1.000E-06  1.000E-06  1.000E-06  1.000E-06  1.000E-06  1.000E-06  1.000E-06  1.000E-06  1.000E-06  1.000E-06  1.000E-06
       1.000E-06  1.000E-06  1.000E-06  1.000E-06  1.000E-06  1.000E-06  1.000E-06
  20   1.000E-06  1.000E-06  1.000E-06  1.000E-06  1.000E-06  1.000E-06  1.000E-06  1.000E-06  1.000E-06  1.000E-06  1.000E-06
       1.000E-06  1.000E-06  1.000E-06  1.000E-06  1.000E-06  1.000E-06  1.000E-06  1.000E-06  1.000E-06  1.000E-06  1.000E-06
       1.000E-06  1.000E-06  1.000E-06  1.000E-06  1.000E-06  1.000E-06  1.000E-06  1.000E-06  1.000E-06  1.000E-06  1.000E-06
       1.000E-06  1.000E-06  1.000E-06  1.000E-06  1.000E-06  1.000E-06  1.000E-06
  21   1.000E-06  1.000E-06  1.000E-06  1.000E-06  1.000E-06  1.000E-06  1.000E-06  1.000E-06  1.000E-06  1.000E-06  1.000E-06
       1.000E-06  1.000E-06  1.000E-06  1.000E-06  1.000E-06  1.000E-06  1.000E-06  1.000E-06  1.000E-06  1.000E-06  1.000E-06
       1.000E-06  1.000E-06  1.000E-06  1.000E-06  1.000E-06  1.000E-06  1.000E-06  1.000E-06  1.000E-06  1.000E-06  1.000E-06
       1.000E-06  1.000E-06  1.000E-06  1.000E-06  1.000E-06  1.000E-06  1.000E-06
  22   1.000E-06  1.000E-06  1.000E-06  1.000E-06  1.000E-06  1.000E-06  1.000E-06  1.000E-06  1.000E-06  1.000E-06  1.000E-06
       1.000E-06  1.000E-06  1.000E-06  1.000E-06  1.000E-06  1.000E-06  1.000E-06  1.000E-06  1.000E-06  1.000E-06  1.000E-06
       1.000E-06  1.000E-06  1.000E-06  1.000E-06  1.000E-06  1.000E-06  1.000E-06  1.000E-06  1.000E-06  1.000E-06  1.000E-06
       1.000E-06  1.000E-06  1.000E-06  1.000E-06  1.000E-06  1.000E-06  1.000E-06
  23   1.000E-06  1.000E-06  1.000E-06  1.000E-06  1.000E-06  1.000E-06  1.000E-06  1.000E-06  1.000E-06  1.000E-06  1.000E-06
       1.000E-06  1.000E-06  1.000E-06  1.000E-06  1.000E-06  1.000E-06  1.000E-06  1.000E-06  1.000E-06  1.000E-06  1.000E-06
       1.000E-06  1.000E-06  1.000E-06  1.000E-06  1.000E-06  1.000E-06  1.000E-06  1.000E-06  1.000E-06  1.000E-06  1.000E-06
       1.000E-06  1.000E-06  1.000E-06  1.000E-06  1.000E-06  1.000E-06  1.000E-06
  24   1.000E-06  1.000E-06  1.000E-06  1.000E-06  1.000E-06  1.000E-06  1.000E-06  1.000E-06  1.000E-06  1.000E-06  1.000E-06
       1.000E-06  1.000E-06  1.000E-06  1.000E-06  1.000E-06  1.000E-06  1.000E-06  1.000E-06  1.000E-06  1.000E-06  1.000E-06
       1.000E-06  1.000E-06  1.000E-06  1.000E-06  1.000E-06  1.000E-06  1.000E-06  1.000E-06  1.000E-06  1.000E-06  1.000E-06
       1.000E-06  1.000E-06  1.000E-06  1.000E-06  1.000E-06  1.000E-06  1.000E-06
  25   1.000E-06  1.000E-06  1.000E-06  1.000E-06  1.000E-06  1.000E-06  1.000E-06  1.000E-06  1.000E-06  1.000E-06  1.000E-06
       1.000E-06  1.000E-06  1.000E-06  1.000E-06  1.000E-06  1.000E-06  1.000E-06  1.000E-06  1.000E-06  1.000E-06  1.000E-06
       1.000E-06  1.000E-06  1.000E-06  1.000E-06  1.000E-06  1.000E-06  1.000E-06  1.000E-06  1.000E-06  1.000E-06  1.000E-06
       1.000E-06  1.000E-06  1.000E-06  1.000E-06  1.000E-06  1.000E-06  1.000E-06
  26   1.000E-06  1.000E-06  1.000E-06  1.000E-06  1.000E-06  1.000E-06  1.000E-06  1.000E-06  1.000E-06  1.000E-06  1.000E-06
       1.000E-06  1.000E-06  1.000E-06  1.000E-06  1.000E-06  1.000E-06  1.000E-06  1.000E-06  1.000E-06  1.000E-06  1.000E-06
       1.000E-06  1.000E-06  1.000E-06  1.000E-06  1.000E-06  1.000E-06  1.000E-06  1.000E-06  1.000E-06  1.000E-06  1.000E-06
       1.000E-06  1.000E-06  1.000E-06  1.000E-06  1.000E-06  1.000E-06  1.000E-06
  27   1.000E-06  1.000E-06  1.000E-06  1.000E-06  1.000E-06  1.000E-06  1.000E-06  1.000E-06  1.000E-06  1.000E-06  1.000E-06
       1.000E-06  1.000E-06  1.000E-06  1.000E-06  1.000E-06  1.000E-06  1.000E-06  1.000E-06  1.000E-06  1.000E-06  1.000E-06
       1.000E-06  1.000E-06  1.000E-06  1.000E-06  1.000E-06  1.000E-06  1.000E-06  1.000E-06  1.000E-06  1.000E-06  1.000E-06
       1.000E-06  1.000E-06  1.000E-06  1.000E-06  1.000E-06  1.000E-06  1.000E-06
  28   1.000E-06  1.000E-06  1.000E-06  1.000E-06  1.000E-06  1.000E-06  1.000E-06  1.000E-06  1.000E-06  1.000E-06  1.000E-06
       1.000E-06  1.000E-06  1.000E-06  1.000E-06  1.000E-06  1.000E-06  1.000E-06  1.000E-06  1.000E-06  1.000E-06  1.000E-06
       1.000E-06  1.000E-06  1.000E-06  1.000E-06  1.000E-06  1.000E-06  1.000E-06  1.000E-06  1.000E-06  1.000E-06  1.000E-06
       1.000E-06  1.000E-06  1.000E-06  1.000E-06  1.000E-06  1.000E-06  1.000E-06
  29   1.000E-06  1.000E-06  1.000E-06  1.000E-06  1.000E-06  1.000E-06  1.000E-06  1.000E-06  1.000E-06  1.000E-06  1.000E-06
       1.000E-06  1.000E-06  1.000E-06  1.000E-06  1.000E-06  1.000E-06  1.000E-06  1.000E-06  1.000E-06  1.000E-06  1.000E-06
       1.000E-06  1.000E-06  1.000E-06  1.000E-06  1.000E-06  1.000E-06  1.000E-06  1.000E-06  1.000E-06  1.000E-06  1.000E-06
       1.000E-06  1.000E-06  1.000E-06  1.000E-06  1.000E-06  1.000E-06  1.000E-06
  30   1.000E-06  1.000E-06  1.000E-06  1.000E-06  1.000E-06  1.000E-06  1.000E-06  1.000E-06  1.000E-06  1.000E-06  1.000E-06
       1.000E-06  1.000E-06  1.000E-06  1.000E-06  1.000E-06  1.000E-06  1.000E-06  1.000E-06  1.000E-06  1.000E-06  1.000E-06
       1.000E-06  1.000E-06  1.000E-06  1.000E-06  1.000E-06  1.000E-06  1.000E-06  1.000E-06  1.000E-06  1.000E-06  1.000E-06
       1.000E-06  1.000E-06  1.000E-06  1.000E-06  1.000E-06  1.000E-06  1.000E-06
  31   1.000E-06  1.000E-06  1.000E-06  1.000E-06  1.000E-06  1.000E-06  1.000E-06  1.000E-06  1.000E-06  1.000E-06  1.000E-06
       1.000E-06  1.000E-06  1.000E-06  1.000E-06  1.000E-06  1.000E-06  1.000E-06  1.000E-06  1.000E-06  1.000E-06  1.000E-06
       1.000E-06  1.000E-06  1.000E-06  1.000E-06  1.000E-06  1.000E-06  1.000E-06  1.000E-06  1.000E-06  1.000E-06  1.000E-06
       1.000E-06  1.000E-06  1.000E-06  1.000E-06  1.000E-06  1.000E-06  1.000E-06
  32   1.000E-06  1.000E-06  1.000E-06  1.000E-06  1.000E-06  1.000E-06  1.000E-06  1.000E-06  1.000E-06  1.000E-06  1.000E-06
       1.000E-06  1.000E-06  1.000E-06  1.000E-06  1.000E-06  1.000E-06  1.000E-06  1.000E-06  1.000E-06  1.000E-06  1.000E-06
       1.000E-06  1.000E-06  1.000E-06  1.000E-06  1.000E-06  1.000E-06  1.000E-06  1.000E-06  1.000E-06  1.000E-06  1.000E-06
       1.000E-06  1.000E-06  1.000E-06  1.000E-06  1.000E-06  1.000E-06  1.000E-06
  33   1.000E-06  1.000E-06  1.000E-06  1.000E-06  1.000E-06  1.000E-06  1.000E-06  1.000E-06  1.000E-06  1.000E-06  1.000E-06
       1.000E-06  1.000E-06  1.000E-06  1.000E-06  1.000E-06  1.000E-06  1.000E-06  1.000E-06  1.000E-06  1.000E-06  1.000E-06
       1.000E-06  1.000E-06  1.000E-06  1.000E-06  1.000E-06  1.000E-06  1.000E-06  1.000E-06  1.000E-06  1.000E-06  1.000E-06
       1.000E-06  1.000E-06  1.000E-06  1.000E-06  1.000E-06  1.000E-06  1.000E-06
  34   1.000E-06  1.000E-06  1.000E-06  1.000E-06  1.000E-06  1.000E-06  1.000E-06  1.000E-06  1.000E-06  1.000E-06  1.000E-06
       1.000E-06  1.000E-06  1.000E-06  1.000E-06  1.000E-06  1.000E-06  1.000E-06  1.000E-06  1.000E-06  1.000E-06  1.000E-06
       1.000E-06  1.000E-06  1.000E-06  1.000E-06  1.000E-06  1.000E-06  1.000E-06  1.000E-06  1.000E-06  1.000E-06  1.000E-06
       1.000E-06  1.000E-06  1.000E-06  1.000E-06  1.000E-06  1.000E-06  1.000E-06
  35   1.000E-06  1.000E-06  1.000E-06  1.000E-06  1.000E-06  1.000E-06  1.000E-06  1.000E-06  1.000E-06  1.000E-06  1.000E-06
       1.000E-06  1.000E-06  1.000E-06  1.000E-06  1.000E-06  1.000E-06  1.000E-06  1.000E-06  1.000E-06  1.000E-06  1.000E-06
       1.000E-06  1.000E-06  1.000E-06  1.000E-06  1.000E-06  1.000E-06  1.000E-06  1.000E-06  1.000E-06  1.000E-06  1.000E-06
       1.000E-06  1.000E-06  1.000E-06  1.000E-06  1.000E-06  1.000E-06  1.000E-06
  36   1.000E-06  1.000E-06  1.000E-06  1.000E-06  1.000E-06  1.000E-06  1.000E-06  1.000E-06  1.000E-06  1.000E-06  1.000E-06
       1.000E-06  1.000E-06  1.000E-06  1.000E-06  1.000E-06  1.000E-06  1.000E-06  1.000E-06  1.000E-06  1.000E-06  1.000E-06
       1.000E-06  1.000E-06  1.000E-06  1.000E-06  1.000E-06  1.000E-06  1.000E-06  1.000E-06  1.000E-06  1.000E-06  1.000E-06
       1.000E-06  1.000E-06  1.000E-06  1.000E-06  1.000E-06  1.000E-06  1.000E-06
  37   1.000E-06  1.000E-06  1.000E-06  1.000E-06  1.000E-06  1.000E-06  1.000E-06  1.000E-06  1.000E-06  1.000E-06  1.000E-06
       1.000E-06  1.000E-06  1.000E-06  1.000E-06  1.000E-06  1.000E-06  1.000E-06  1.000E-06  1.000E-06  1.000E-06  1.000E-06
       1.000E-06  1.000E-06  1.000E-06  1.000E-06  1.000E-06  1.000E-06  1.000E-06  1.000E-06  1.000E-06  1.000E-06  1.000E-06
       1.000E-06  1.000E-06  1.000E-06  1.000E-06  1.000E-06  1.000E-06  1.000E-06
  38   1.000E-06  1.000E-06  1.000E-06  1.000E-06  1.000E-06  1.000E-06  1.000E-06  1.000E-06  1.000E-06  1.000E-06  1.000E-06
       1.000E-06  1.000E-06  1.000E-06  1.000E-06  1.000E-06  1.000E-06  1.000E-06  1.000E-06  1.000E-06  1.000E-06  1.000E-06
       1.000E-06  1.000E-06  1.000E-06  1.000E-06  1.000E-06  1.000E-06  1.000E-06  1.000E-06  1.000E-06  1.000E-06  1.000E-06
       1.000E-06  1.000E-06  1.000E-06  1.000E-06  1.000E-06  1.000E-06  1.000E-06
  39   1.000E-06  1.000E-06  1.000E-06  1.000E-06  1.000E-06  1.000E-06  1.000E-06  1.000E-06  1.000E-06  1.000E-06  1.000E-06
       1.000E-06  1.000E-06  1.000E-06  1.000E-06  1.000E-06  1.000E-06  1.000E-06  1.000E-06  1.000E-06  1.000E-06  1.000E-06
       1.000E-06  1.000E-06  1.000E-06  1.000E-06  1.000E-06  1.000E-06  1.000E-06  1.000E-06  1.000E-06  1.000E-06  1.000E-06
       1.000E-06  1.000E-06  1.000E-06  1.000E-06  1.000E-06  1.000E-06  1.000E-06
  40   1.000E-06  1.000E-06  1.000E-06  1.000E-06  1.000E-06  1.000E-06  1.000E-06  1.000E-06  1.000E-06  1.000E-06  1.000E-06
       1.000E-06  1.000E-06  1.000E-06  1.000E-06  1.000E-06  1.000E-06  1.000E-06  1.000E-06  1.000E-06  1.000E-06  1.000E-06
       1.000E-06  1.000E-06  1.000E-06  1.000E-06  1.000E-06  1.000E-06  1.000E-06  1.000E-06  1.000E-06  1.000E-06  1.000E-06
       1.000E-06  1.000E-06  1.000E-06  1.000E-06  1.000E-06  1.000E-06  1.000E-06

         SPECIFIC STORAGE FOR LAYER 3

               1          2          3          4          5          6          7          8          9         10         11
              12         13         14         15         16         17         18         19         20         21         22
              23         24         25         26         27         28         29         30         31         32         33
              34         35         36         37         38         39         40
 .............................................................................................................................
   1   1.000E-06  1.000E-06  1.000E-06  1.000E-06  1.000E-06  1.000E-06  1.000E-06  1.000E-06  1.000E-06  1.000E-06  1.000E-06
       1.000E-06  1.000E-06  1.000E-06  1.000E-06  1.000E-06  1.000E-06  1.000E-06  1.000E-06  1.000E-06  1.000E-06  1.000E-06
       1.000E-06  1.000E-06  1.000E-06  1.000E-06  1.000E-06  1.000E-06  1.000E-06  1.000E-06  1.000E-06  1.000E-06  1.000E-06
       1.000E-06  1.000E-06  1.000E-06  1.000E-06  1.000E-06  1.000E-06  1.000E-06
   2   1.000E-06  1.000E-06  1.000E-06  1.000E-06  1.000E-06  1.000E-06  1.000E-06  1.000E-06  1.000E-06  1.000E-06  1.000E-06
       1.000E-06  1.000E-06  1.000E-06  1.000E-06  1.000E-06  1.000E-06  1.000E-06  1.000E-06  1.000E-06  1.000E-06  1.000E-06
       1.000E-06  1.000E-06  1.000E-06  1.000E-06  1.000E-06  1.000E-06  1.000E-06  1.000E-06  1.000E-06  1.000E-06  1.000E-06
       1.000E-06  1.000E-06  1.000E-06  1.000E-06  1.000E-06  1.000E-06  1.000E-06
   3   1.000E-06  1.000E-06  1.000E-06  1.000E-06  1.000E-06  1.000E-06  1.000E-06  1.000E-06  1.000E-06  1.000E-06  1.000E-06
       1.000E-06  1.000E-06  1.000E-06  1.000E-06  1.000E-06  1.000E-06  1.000E-06  1.000E-06  1.000E-06  1.000E-06  1.000E-06
       1.000E-06  1.000E-06  1.000E-06  1.000E-06  1.000E-06  1.000E-06  1.000E-06  1.000E-06  1.000E-06  1.000E-06  1.000E-06
       1.000E-06  1.000E-06  1.000E-06  1.000E-06  1.000E-06  1.000E-06  1.000E-06
   4   1.000E-06  1.000E-06  1.000E-06  1.000E-06  1.000E-06  1.000E-06  1.000E-06  1.000E-06  1.000E-06  1.000E-06  1.000E-06
       1.000E-06  1.000E-06  1.000E-06  1.000E-06  1.000E-06  1.000E-06  1.000E-06  1.000E-06  1.000E-06  1.000E-06  1.000E-06
       1.000E-06  1.000E-06  1.000E-06  1.000E-06  1.000E-06  1.000E-06  1.000E-06  1.000E-06  1.000E-06  1.000E-06  1.000E-06
       1.000E-06  1.000E-06  1.000E-06  1.000E-06  1.000E-06  1.000E-06  1.000E-06
   5   1.000E-06  1.000E-06  1.000E-06  1.000E-06  1.000E-06  1.000E-06  1.000E-06  1.000E-06  1.000E-06  1.000E-06  1.000E-06
       1.000E-06  1.000E-06  1.000E-06  1.000E-06  1.000E-06  1.000E-06  1.000E-06  1.000E-06  1.000E-06  1.000E-06  1.000E-06
       1.000E-06  1.000E-06  1.000E-06  1.000E-06  1.000E-06  1.000E-06  1.000E-06  1.000E-06  1.000E-06  1.000E-06  1.000E-06
       1.000E-06  1.000E-06  1.000E-06  1.000E-06  1.000E-06  1.000E-06  1.000E-06
   6   1.000E-06  1.000E-06  1.000E-06  1.000E-06  1.000E-06  1.000E-06  1.000E-06  1.000E-06  1.000E-06  1.000E-06  1.000E-06
       1.000E-06  1.000E-06  1.000E-06  1.000E-06  1.000E-06  1.000E-06  1.000E-06  1.000E-06  1.000E-06  1.000E-06  1.000E-06
       1.000E-06  1.000E-06  1.000E-06  1.000E-06  1.000E-06  1.000E-06  1.000E-06  1.000E-06  1.000E-06  1.000E-06  1.000E-06
       1.000E-06  1.000E-06  1.000E-06  1.000E-06  1.000E-06  1.000E-06  1.000E-06
   7   1.000E-06  1.000E-06  1.000E-06  1.000E-06  1.000E-06  1.000E-06  1.000E-06  1.000E-06  1.000E-06  1.000E-06  1.000E-06
       1.000E-06  1.000E-06  1.000E-06  1.000E-06  1.000E-06  1.000E-06  1.000E-06  1.000E-06  1.000E-06  1.000E-06  1.000E-06
       1.000E-06  1.000E-06  1.000E-06  1.000E-06  1.000E-06  1.000E-06  1.000E-06  1.000E-06  1.000E-06  1.000E-06  1.000E-06
       1.000E-06  1.000E-06  1.000E-06  1.000E-06  1.000E-06  1.000E-06  1.000E-06
   8   1.000E-06  1.000E-06  1.000E-06  1.000E-06  1.000E-06  1.000E-06  1.000E-06  1.000E-06  1.000E-06  1.000E-06  1.000E-06
       1.000E-06  1.000E-06  1.000E-06  1.000E-06  1.000E-06  1.000E-06  1.000E-06  1.000E-06  1.000E-06  1.000E-06  1.000E-06
       1.000E-06  1.000E-06  1.000E-06  1.000E-06  1.000E-06  1.000E-06  1.000E-06  1.000E-06  1.000E-06  1.000E-06  1.000E-06
       1.000E-06  1.000E-06  1.000E-06  1.000E-06  1.000E-06  1.000E-06  1.000E-06
   9   1.000E-06  1.000E-06  1.000E-06  1.000E-06  1.000E-06  1.000E-06  1.000E-06  1.000E-06  1.000E-06  1.000E-06  1.000E-06
       1.000E-06  1.000E-06  1.000E-06  1.000E-06  1.000E-06  1.000E-06  1.000E-06  1.000E-06  1.000E-06  1.000E-06  1.000E-06
       1.000E-06  1.000E-06  1.000E-06  1.000E-06  1.000E-06  1.000E-06  1.000E-06  1.000E-06  1.000E-06  1.000E-06  1.000E-06
       1.000E-06  1.000E-06  1.000E-06  1.000E-06  1.000E-06  1.000E-06  1.000E-06
  10   1.000E-06  1.000E-06  1.000E-06  1.000E-06  1.000E-06  1.000E-06  1.000E-06  1.000E-06  1.000E-06  1.000E-06  1.000E-06
       1.000E-06  1.000E-06  1.000E-06  1.000E-06  1.000E-06  1.000E-06  1.000E-06  1.000E-06  1.000E-06  1.000E-06  1.000E-06
       1.000E-06  1.000E-06  1.000E-06  1.000E-06  1.000E-06  1.000E-06  1.000E-06  1.000E-06  1.000E-06  1.000E-06  1.000E-06
       1.000E-06  1.000E-06  1.000E-06  1.000E-06  1.000E-06  1.000E-06  1.000E-06
  11   1.000E-06  1.000E-06  1.000E-06  1.000E-06  1.000E-06  1.000E-06  1.000E-06  1.000E-06  1.000E-06  1.000E-06  1.000E-06
       1.000E-06  1.000E-06  1.000E-06  1.000E-06  1.000E-06  1.000E-06  1.000E-06  1.000E-06  1.000E-06  1.000E-06  1.000E-06
       1.000E-06  1.000E-06  1.000E-06  1.000E-06  1.000E-06  1.000E-06  1.000E-06  1.000E-06  1.000E-06  1.000E-06  1.000E-06
       1.000E-06  1.000E-06  1.000E-06  1.000E-06  1.000E-06  1.000E-06  1.000E-06
  12   1.000E-06  1.000E-06  1.000E-06  1.000E-06  1.000E-06  1.000E-06  1.000E-06  1.000E-06  1.000E-06  1.000E-06  1.000E-06
       1.000E-06  1.000E-06  1.000E-06  1.000E-06  1.000E-06  1.000E-06  1.000E-06  1.000E-06  1.000E-06  1.000E-06  1.000E-06
       1.000E-06  1.000E-06  1.000E-06  1.000E-06  1.000E-06  1.000E-06  1.000E-06  1.000E-06  1.000E-06  1.000E-06  1.000E-06
       1.000E-06  1.000E-06  1.000E-06  1.000E-06  1.000E-06  1.000E-06  1.000E-06
  13   1.000E-06  1.000E-06  1.000E-06  1.000E-06  1.000E-06  1.000E-06  1.000E-06  1.000E-06  1.000E-06  1.000E-06  1.000E-06
       1.000E-06  1.000E-06  1.000E-06  1.000E-06  1.000E-06  1.000E-06  1.000E-06  1.000E-06  1.000E-06  1.000E-06  1.000E-06
       1.000E-06  1.000E-06  1.000E-06  1.000E-06  1.000E-06  1.000E-06  1.000E-06  1.000E-06  1.000E-06  1.000E-06  1.000E-06
       1.000E-06  1.000E-06  1.000E-06  1.000E-06  1.000E-06  1.000E-06  1.000E-06
  14   1.000E-06  1.000E-06  1.000E-06  1.000E-06  1.000E-06  1.000E-06  1.000E-06  1.000E-06  1.000E-06  1.000E-06  1.000E-06
       1.000E-06  1.000E-06  1.000E-06  1.000E-06  1.000E-06  1.000E-06  1.000E-06  1.000E-06  1.000E-06  1.000E-06  1.000E-06
       1.000E-06  1.000E-06  1.000E-06  1.000E-06  1.000E-06  1.000E-06  1.000E-06  1.000E-06  1.000E-06  1.000E-06  1.000E-06
       1.000E-06  1.000E-06  1.000E-06  1.000E-06  1.000E-06  1.000E-06  1.000E-06
  15   1.000E-06  1.000E-06  1.000E-06  1.000E-06  1.000E-06  1.000E-06  1.000E-06  1.000E-06  1.000E-06  1.000E-06  1.000E-06
       1.000E-06  1.000E-06  1.000E-06  1.000E-06  1.000E-06  1.000E-06  1.000E-06  1.000E-06  1.000E-06  1.000E-06  1.000E-06
       1.000E-06  1.000E-06  1.000E-06  1.000E-06  1.000E-06  1.000E-06  1.000E-06  1.000E-06  1.000E-06  1.000E-06  1.000E-06
       1.000E-06  1.000E-06  1.000E-06  1.000E-06  1.000E-06  1.000E-06  1.000E-06
  16   1.000E-06  1.000E-06  1.000E-06  1.000E-06  1.000E-06  1.000E-06  1.000E-06  1.000E-06  1.000E-06  1.000E-06  1.000E-06
       1.000E-06  1.000E-06  1.000E-06  1.000E-06  1.000E-06  1.000E-06  1.000E-06  1.000E-06  1.000E-06  1.000E-06  1.000E-06
       1.000E-06  1.000E-06  1.000E-06  1.000E-06  1.000E-06  1.000E-06  1.000E-06  1.000E-06  1.000E-06  1.000E-06  1.000E-06
       1.000E-06  1.000E-06  1.000E-06  1.000E-06  1.000E-06  1.000E-06  1.000E-06
  17   1.000E-06  1.000E-06  1.000E-06  1.000E-06  1.000E-06  1.000E-06  1.000E-06  1.000E-06  1.000E-06  1.000E-06  1.000E-06
       1.000E-06  1.000E-06  1.000E-06  1.000E-06  1.000E-06  1.000E-06  1.000E-06  1.000E-06  1.000E-06  1.000E-06  1.000E-06
       1.000E-06  1.000E-06  1.000E-06  1.000E-06  1.000E-06  1.000E-06  1.000E-06  1.000E-06  1.000E-06  1.000E-06  1.000E-06
       1.000E-06  1.000E-06  1.000E-06  1.000E-06  1.000E-06  1.000E-06  1.000E-06
  18   1.000E-06  1.000E-06  1.000E-06  1.000E-06  1.000E-06  1.000E-06  1.000E-06  1.000E-06  1.000E-06  1.000E-06  1.000E-06
       1.000E-06  1.000E-06  1.000E-06  1.000E-06  1.000E-06  1.000E-06  1.000E-06  1.000E-06  1.000E-06  1.000E-06  1.000E-06
       1.000E-06  1.000E-06  1.000E-06  1.000E-06  1.000E-06  1.000E-06  1.000E-06  1.000E-06  1.000E-06  1.000E-06  1.000E-06
       1.000E-06  1.000E-06  1.000E-06  1.000E-06  1.000E-06  1.000E-06  1.000E-06
  19   1.000E-06  1.000E-06  1.000E-06  1.000E-06  1.000E-06  1.000E-06  1.000E-06  1.000E-06  1.000E-06  1.000E-06  1.000E-06
       1.000E-06  1.000E-06  1.000E-06  1.000E-06  1.000E-06  1.000E-06  1.000E-06  1.000E-06  1.000E-06  1.000E-06  1.000E-06
       1.000E-06  1.000E-06  1.000E-06  1.000E-06  1.000E-06  1.000E-06  1.000E-06  1.000E-06  1.000E-06  1.000E-06  1.000E-06
       1.000E-06  1.000E-06  1.000E-06  1.000E-06  1.000E-06  1.000E-06  1.000E-06
  20   1.000E-06  1.000E-06  1.000E-06  1.000E-06  1.000E-06  1.000E-06  1.000E-06  1.000E-06  1.000E-06  1.000E-06  1.000E-06
       1.000E-06  1.000E-06  1.000E-06  1.000E-06  1.000E-06  1.000E-06  1.000E-06  1.000E-06  1.000E-06  1.000E-06  1.000E-06
       1.000E-06  1.000E-06  1.000E-06  1.000E-06  1.000E-06  1.000E-06  1.000E-06  1.000E-06  1.000E-06  1.000E-06  1.000E-06
       1.000E-06  1.000E-06  1.000E-06  1.000E-06  1.000E-06  1.000E-06  1.000E-06
  21   1.000E-06  1.000E-06  1.000E-06  1.000E-06  1.000E-06  1.000E-06  1.000E-06  1.000E-06  1.000E-06  1.000E-06  1.000E-06
       1.000E-06  1.000E-06  1.000E-06  1.000E-06  1.000E-06  1.000E-06  1.000E-06  1.000E-06  1.000E-06  1.000E-06  1.000E-06
       1.000E-06  1.000E-06  1.000E-06  1.000E-06  1.000E-06  1.000E-06  1.000E-06  1.000E-06  1.000E-06  1.000E-06  1.000E-06
       1.000E-06  1.000E-06  1.000E-06  1.000E-06  1.000E-06  1.000E-06  1.000E-06
  22   1.000E-06  1.000E-06  1.000E-06  1.000E-06  1.000E-06  1.000E-06  1.000E-06  1.000E-06  1.000E-06  1.000E-06  1.000E-06
       1.000E-06  1.000E-06  1.000E-06  1.000E-06  1.000E-06  1.000E-06  1.000E-06  1.000E-06  1.000E-06  1.000E-06  1.000E-06
       1.000E-06  1.000E-06  1.000E-06  1.000E-06  1.000E-06  1.000E-06  1.000E-06  1.000E-06  1.000E-06  1.000E-06  1.000E-06
       1.000E-06  1.000E-06  1.000E-06  1.000E-06  1.000E-06  1.000E-06  1.000E-06
  23   1.000E-06  1.000E-06  1.000E-06  1.000E-06  1.000E-06  1.000E-06  1.000E-06  1.000E-06  1.000E-06  1.000E-06  1.000E-06
       1.000E-06  1.000E-06  1.000E-06  1.000E-06  1.000E-06  1.000E-06  1.000E-06  1.000E-06  1.000E-06  1.000E-06  1.000E-06
       1.000E-06  1.000E-06  1.000E-06  1.000E-06  1.000E-06  1.000E-06  1.000E-06  1.000E-06  1.000E-06  1.000E-06  1.000E-06
       1.000E-06  1.000E-06  1.000E-06  1.000E-06  1.000E-06  1.000E-06  1.000E-06
  24   1.000E-06  1.000E-06  1.000E-06  1.000E-06  1.000E-06  1.000E-06  1.000E-06  1.000E-06  1.000E-06  1.000E-06  1.000E-06
       1.000E-06  1.000E-06  1.000E-06  1.000E-06  1.000E-06  1.000E-06  1.000E-06  1.000E-06  1.000E-06  1.000E-06  1.000E-06
       1.000E-06  1.000E-06  1.000E-06  1.000E-06  1.000E-06  1.000E-06  1.000E-06  1.000E-06  1.000E-06  1.000E-06  1.000E-06
       1.000E-06  1.000E-06  1.000E-06  1.000E-06  1.000E-06  1.000E-06  1.000E-06
  25   1.000E-06  1.000E-06  1.000E-06  1.000E-06  1.000E-06  1.000E-06  1.000E-06  1.000E-06  1.000E-06  1.000E-06  1.000E-06
       1.000E-06  1.000E-06  1.000E-06  1.000E-06  1.000E-06  1.000E-06  1.000E-06  1.000E-06  1.000E-06  1.000E-06  1.000E-06
       1.000E-06  1.000E-06  1.000E-06  1.000E-06  1.000E-06  1.000E-06  1.000E-06  1.000E-06  1.000E-06  1.000E-06  1.000E-06
       1.000E-06  1.000E-06  1.000E-06  1.000E-06  1.000E-06  1.000E-06  1.000E-06
  26   1.000E-06  1.000E-06  1.000E-06  1.000E-06  1.000E-06  1.000E-06  1.000E-06  1.000E-06  1.000E-06  1.000E-06  1.000E-06
       1.000E-06  1.000E-06  1.000E-06  1.000E-06  1.000E-06  1.000E-06  1.000E-06  1.000E-06  1.000E-06  1.000E-06  1.000E-06
       1.000E-06  1.000E-06  1.000E-06  1.000E-06  1.000E-06  1.000E-06  1.000E-06  1.000E-06  1.000E-06  1.000E-06  1.000E-06
       1.000E-06  1.000E-06  1.000E-06  1.000E-06  1.000E-06  1.000E-06  1.000E-06
  27   1.000E-06  1.000E-06  1.000E-06  1.000E-06  1.000E-06  1.000E-06  1.000E-06  1.000E-06  1.000E-06  1.000E-06  1.000E-06
       1.000E-06  1.000E-06  1.000E-06  1.000E-06  1.000E-06  1.000E-06  1.000E-06  1.000E-06  1.000E-06  1.000E-06  1.000E-06
       1.000E-06  1.000E-06  1.000E-06  1.000E-06  1.000E-06  1.000E-06  1.000E-06  1.000E-06  1.000E-06  1.000E-06  1.000E-06
       1.000E-06  1.000E-06  1.000E-06  1.000E-06  1.000E-06  1.000E-06  1.000E-06
  28   1.000E-06  1.000E-06  1.000E-06  1.000E-06  1.000E-06  1.000E-06  1.000E-06  1.000E-06  1.000E-06  1.000E-06  1.000E-06
       1.000E-06  1.000E-06  1.000E-06  1.000E-06  1.000E-06  1.000E-06  1.000E-06  1.000E-06  1.000E-06  1.000E-06  1.000E-06
       1.000E-06  1.000E-06  1.000E-06  1.000E-06  1.000E-06  1.000E-06  1.000E-06  1.000E-06  1.000E-06  1.000E-06  1.000E-06
       1.000E-06  1.000E-06  1.000E-06  1.000E-06  1.000E-06  1.000E-06  1.000E-06
  29   1.000E-06  1.000E-06  1.000E-06  1.000E-06  1.000E-06  1.000E-06  1.000E-06  1.000E-06  1.000E-06  1.000E-06  1.000E-06
       1.000E-06  1.000E-06  1.000E-06  1.000E-06  1.000E-06  1.000E-06  1.000E-06  1.000E-06  1.000E-06  1.000E-06  1.000E-06
       1.000E-06  1.000E-06  1.000E-06  1.000E-06  1.000E-06  1.000E-06  1.000E-06  1.000E-06  1.000E-06  1.000E-06  1.000E-06
       1.000E-06  1.000E-06  1.000E-06  1.000E-06  1.000E-06  1.000E-06  1.000E-06
  30   1.000E-06  1.000E-06  1.000E-06  1.000E-06  1.000E-06  1.000E-06  1.000E-06  1.000E-06  1.000E-06  1.000E-06  1.000E-06
       1.000E-06  1.000E-06  1.000E-06  1.000E-06  1.000E-06  1.000E-06  1.000E-06  1.000E-06  1.000E-06  1.000E-06  1.000E-06
       1.000E-06  1.000E-06  1.000E-06  1.000E-06  1.000E-06  1.000E-06  1.000E-06  1.000E-06  1.000E-06  1.000E-06  1.000E-06
       1.000E-06  1.000E-06  1.000E-06  1.000E-06  1.000E-06  1.000E-06  1.000E-06
  31   1.000E-06  1.000E-06  1.000E-06  1.000E-06  1.000E-06  1.000E-06  1.000E-06  1.000E-06  1.000E-06  1.000E-06  1.000E-06
       1.000E-06  1.000E-06  1.000E-06  1.000E-06  1.000E-06  1.000E-06  1.000E-06  1.000E-06  1.000E-06  1.000E-06  1.000E-06
       1.000E-06  1.000E-06  1.000E-06  1.000E-06  1.000E-06  1.000E-06  1.000E-06  1.000E-06  1.000E-06  1.000E-06  1.000E-06
       1.000E-06  1.000E-06  1.000E-06  1.000E-06  1.000E-06  1.000E-06  1.000E-06
  32   1.000E-06  1.000E-06  1.000E-06  1.000E-06  1.000E-06  1.000E-06  1.000E-06  1.000E-06  1.000E-06  1.000E-06  1.000E-06
       1.000E-06  1.000E-06  1.000E-06  1.000E-06  1.000E-06  1.000E-06  1.000E-06  1.000E-06  1.000E-06  1.000E-06  1.000E-06
       1.000E-06  1.000E-06  1.000E-06  1.000E-06  1.000E-06  1.000E-06  1.000E-06  1.000E-06  1.000E-06  1.000E-06  1.000E-06
       1.000E-06  1.000E-06  1.000E-06  1.000E-06  1.000E-06  1.000E-06  1.000E-06
  33   1.000E-06  1.000E-06  1.000E-06  1.000E-06  1.000E-06  1.000E-06  1.000E-06  1.000E-06  1.000E-06  1.000E-06  1.000E-06
       1.000E-06  1.000E-06  1.000E-06  1.000E-06  1.000E-06  1.000E-06  1.000E-06  1.000E-06  1.000E-06  1.000E-06  1.000E-06
       1.000E-06  1.000E-06  1.000E-06  1.000E-06  1.000E-06  1.000E-06  1.000E-06  1.000E-06  1.000E-06  1.000E-06  1.000E-06
       1.000E-06  1.000E-06  1.000E-06  1.000E-06  1.000E-06  1.000E-06  1.000E-06
  34   1.000E-06  1.000E-06  1.000E-06  1.000E-06  1.000E-06  1.000E-06  1.000E-06  1.000E-06  1.000E-06  1.000E-06  1.000E-06
       1.000E-06  1.000E-06  1.000E-06  1.000E-06  1.000E-06  1.000E-06  1.000E-06  1.000E-06  1.000E-06  1.000E-06  1.000E-06
       1.000E-06  1.000E-06  1.000E-06  1.000E-06  1.000E-06  1.000E-06  1.000E-06  1.000E-06  1.000E-06  1.000E-06  1.000E-06
       1.000E-06  1.000E-06  1.000E-06  1.000E-06  1.000E-06  1.000E-06  1.000E-06
  35   1.000E-06  1.000E-06  1.000E-06  1.000E-06  1.000E-06  1.000E-06  1.000E-06  1.000E-06  1.000E-06  1.000E-06  1.000E-06
       1.000E-06  1.000E-06  1.000E-06  1.000E-06  1.000E-06  1.000E-06  1.000E-06  1.000E-06  1.000E-06  1.000E-06  1.000E-06
       1.000E-06  1.000E-06  1.000E-06  1.000E-06  1.000E-06  1.000E-06  1.000E-06  1.000E-06  1.000E-06  1.000E-06  1.000E-06
       1.000E-06  1.000E-06  1.000E-06  1.000E-06  1.000E-06  1.000E-06  1.000E-06
  36   1.000E-06  1.000E-06  1.000E-06  1.000E-06  1.000E-06  1.000E-06  1.000E-06  1.000E-06  1.000E-06  1.000E-06  1.000E-06
       1.000E-06  1.000E-06  1.000E-06  1.000E-06  1.000E-06  1.000E-06  1.000E-06  1.000E-06  1.000E-06  1.000E-06  1.000E-06
       1.000E-06  1.000E-06  1.000E-06  1.000E-06  1.000E-06  1.000E-06  1.000E-06  1.000E-06  1.000E-06  1.000E-06  1.000E-06
       1.000E-06  1.000E-06  1.000E-06  1.000E-06  1.000E-06  1.000E-06  1.000E-06
  37   1.000E-06  1.000E-06  1.000E-06  1.000E-06  1.000E-06  1.000E-06  1.000E-06  1.000E-06  1.000E-06  1.000E-06  1.000E-06
       1.000E-06  1.000E-06  1.000E-06  1.000E-06  1.000E-06  1.000E-06  1.000E-06  1.000E-06  1.000E-06  1.000E-06  1.000E-06
       1.000E-06  1.000E-06  1.000E-06  1.000E-06  1.000E-06  1.000E-06  1.000E-06  1.000E-06  1.000E-06  1.000E-06  1.000E-06
       1.000E-06  1.000E-06  1.000E-06  1.000E-06  1.000E-06  1.000E-06  1.000E-06
  38   1.000E-06  1.000E-06  1.000E-06  1.000E-06  1.000E-06  1.000E-06  1.000E-06  1.000E-06  1.000E-06  1.000E-06  1.000E-06
       1.000E-06  1.000E-06  1.000E-06  1.000E-06  1.000E-06  1.000E-06  1.000E-06  1.000E-06  1.000E-06  1.000E-06  1.000E-06
       1.000E-06  1.000E-06  1.000E-06  1.000E-06  1.000E-06  1.000E-06  1.000E-06  1.000E-06  1.000E-06  1.000E-06  1.000E-06
       1.000E-06  1.000E-06  1.000E-06  1.000E-06  1.000E-06  1.000E-06  1.000E-06
  39   1.000E-06  1.000E-06  1.000E-06  1.000E-06  1.000E-06  1.000E-06  1.000E-06  1.000E-06  1.000E-06  1.000E-06  1.000E-06
       1.000E-06  1.000E-06  1.000E-06  1.000E-06  1.000E-06  1.000E-06  1.000E-06  1.000E-06  1.000E-06  1.000E-06  1.000E-06
       1.000E-06  1.000E-06  1.000E-06  1.000E-06  1.000E-06  1.000E-06  1.000E-06  1.000E-06  1.000E-06  1.000E-06  1.000E-06
       1.000E-06  1.000E-06  1.000E-06  1.000E-06  1.000E-06  1.000E-06  1.000E-06
  40   1.000E-06  1.000E-06  1.000E-06  1.000E-06  1.000E-06  1.000E-06  1.000E-06  1.000E-06  1.000E-06  1.000E-06  1.000E-06
       1.000E-06  1.000E-06  1.000E-06  1.000E-06  1.000E-06  1.000E-06  1.000E-06  1.000E-06  1.000E-06  1.000E-06  1.000E-06
       1.000E-06  1.000E-06  1.000E-06  1.000E-06  1.000E-06  1.000E-06  1.000E-06  1.000E-06  1.000E-06  1.000E-06  1.000E-06
       1.000E-06  1.000E-06  1.000E-06  1.000E-06  1.000E-06  1.000E-06  1.000E-06

           SPECIFIC YIELD =  0.2000000     FOR LAYER 1

           SPECIFIC YIELD =  0.2000000     FOR LAYER 2

           SPECIFIC YIELD =  0.2000000     FOR LAYER 3
 END PROCESSING GRIDDATA

The observation utility is active for "HEATHCOTE"
 # File generated by Flopy version 3.3.3 on 07/19/2021 at 15:11:13.

Processing observation options:

Text output number of digits of precision set to: 10
The PRINT_INPUT option has been specified.


 OBSERVATIONS READ FROM FILE "heathcote.obs"
 ----------------------------------------------------------------------------------------------------------------------------------------------------------------------------------------------------------------------------
 NAME                                     TYPE                                       TIME         LOCATION DATA                              OUTPUT FILENAME                                                                 
 ----------------------------------------------------------------------------------------------------------------------------------------------------------------------------------------------------------------------------
 HEAD_OBS                                 CONTINUOUS  HEAD                           ALL TIMES    "3 19 28"                                  0                                                                               
 ----------------------------------------------------------------------------------------------------------------------------------------------------------------------------------------------------------------------------


    BINARY GRID INFORMATION WILL BE WRITTEN TO:
      UNIT NUMBER: 1016
      FILE NAME: P:\My Documents\flopy_tut\data\mf\heathcote.dis.grb

 OPENED P:\My Documents\flopy_tut\data\mf\heathcote.dis.grb
 FILE TYPE:DATA(BINARY)   UNIT 1016   STATUS:REPLACE             
 FORMAT:UNFORMATTED            ACCESS:STREAM              
 ACTION:READWRITE           

      THE LAST TIME STEP WILL BE PRINTED
      THE LAST TIME STEP WILL BE PRINTED
 # File generated by Flopy version 3.3.3 on 07/19/2021 at 15:11:13.

 PROCESSING OC OPTIONS

    BUDGET INFORMATION WILL BE WRITTEN TO:
      UNIT NUMBER: 1017
      FILE NAME: heathcote.cbb

 OPENED heathcote.cbb
 FILE TYPE:DATA(BINARY)   UNIT 1017   STATUS:REPLACE             
 FORMAT:UNFORMATTED            ACCESS:STREAM              
 ACTION:READWRITE           

    HEAD INFORMATION WILL BE WRITTEN TO:
      UNIT NUMBER: 1018
      FILE NAME: heathcote.hds

 OPENED heathcote.hds
 FILE TYPE:DATA(BINARY)   UNIT 1018   STATUS:REPLACE             
 FORMAT:UNFORMATTED            ACCESS:STREAM              
 ACTION:READWRITE           

 END OF OC OPTIONS

start timestep kper="1" kstp="1" mode="normal"


 BEGIN READING OUTPUT CONTROL FOR STRESS PERIOD 1
      ALL TIME STEPS WILL BE SAVED
      ALL TIME STEPS WILL BE SAVED
      THE LAST TIME STEP WILL BE PRINTED

 END READING OUTPUT CONTROL FOR STRESS PERIOD 1


 PROCESSING STORAGE PERIOD DATA
 END PROCESSING STORAGE PERIOD DATA


 STRESS PERIOD 1 IS STEADY-STATE


 REUSING WELS FROM LAST STRESS PERIOD
 UBDSV1 SAVING           STO-SS ON UNIT   1017 AT TIME STEP      1, STRESS PERIOD      1
 UBDSV1 SAVING           STO-SY ON UNIT   1017 AT TIME STEP      1, STRESS PERIOD      1
 UBDSV1 SAVING     FLOW-JA-FACE ON UNIT   1017 AT TIME STEP      1, STRESS PERIOD      1
 UBDSV06 SAVING              WEL IN MODEL HEATHCOTE        PACKAGE HEATHCOTE       CONNECTED TO MODEL HEATHCOTE        PACKAGE WEL              ON UNIT   1017 AT TIME STEP      1, STRESS PERIOD      1
 UBDSV06 SAVING              RCH IN MODEL HEATHCOTE        PACKAGE HEATHCOTE       CONNECTED TO MODEL HEATHCOTE        PACKAGE RCH_0            ON UNIT   1017 AT TIME STEP      1, STRESS PERIOD      1
 UBDSV06 SAVING              CHD IN MODEL HEATHCOTE        PACKAGE HEATHCOTE       CONNECTED TO MODEL HEATHCOTE        PACKAGE CHD_0            ON UNIT   1017 AT TIME STEP      1, STRESS PERIOD      1
1
  HEAD IN LAYER   1 AT END OF TIME STEP   1 IN STRESS PERIOD    1
  ---------------------------------------------------------------------------

            1           2           3           4           5           6           7           8           9          10
           11          12          13          14          15          16          17          18          19          20
           21          22          23          24          25          26          27          28          29          30
           31          32          33          34          35          36          37          38          39          40
 ........................................................................................................................
   1    1.471       1.468       1.463       1.456       1.448       1.440       1.432       1.427       1.422       1.416    
        1.406       1.389       1.357       1.300       1.206       1.074      0.8986      0.6279       0.000       0.000    
        0.000       0.000       0.000       0.000       0.000       0.000       0.000      0.5034      0.7127      0.8323    
       0.9143      0.9763       1.026       1.066       1.099       1.126       1.147       1.162       1.173       1.179    
   2    1.471       1.469       1.464       1.457       1.448       1.440       1.433       1.427       1.422       1.416    
        1.406       1.387       1.352       1.292       1.198       1.070      0.8991      0.6303       0.000       0.000    
        0.000       0.000       0.000       0.000       0.000       0.000       0.000      0.5158      0.7247      0.8423    
       0.9225      0.9832       1.032       1.071       1.104       1.130       1.151       1.166       1.177       1.182    
   3    1.472       1.470       1.465       1.458       1.449       1.440       1.433       1.427       1.422       1.415    
        1.404       1.383       1.344       1.281       1.190       1.069      0.9037      0.6377       0.000       0.000    
        0.000       0.000       0.000       0.000       0.000       0.000       0.000      0.5508      0.7518      0.8628    
       0.9385      0.9963       1.043       1.081       1.112       1.138       1.158       1.173       1.183       1.188    
   4    1.474       1.471       1.466       1.459       1.450       1.441       1.433       1.428       1.422       1.415    
        1.402       1.379       1.337       1.274       1.188       1.074      0.9172      0.6555       0.000       0.000    
        0.000       0.000       0.000       0.000       0.000       0.000      0.4157      0.6586      0.7999      0.8938    
       0.9618       1.015       1.059       1.095       1.124       1.149       1.168       1.182       1.192       1.197    
   5    1.476       1.473       1.468       1.460       1.452       1.442       1.434       1.428       1.423       1.415    
        1.401       1.376       1.334       1.273       1.193       1.090      0.9463      0.6986       0.000       0.000    
        0.000       0.000       0.000       0.000       0.000       0.000      0.5398      0.7373      0.8503      0.9300    
       0.9906       1.039       1.078       1.112       1.140       1.163       1.181       1.194       1.204       1.208    
   6    1.478       1.476       1.470       1.463       1.454       1.444       1.435       1.429       1.423       1.415    
        1.401       1.376       1.336       1.279       1.207       1.117      0.9992      0.8302      0.5410       0.000    
        0.000       0.000       0.000       0.000       0.000      0.4603      0.6887      0.8167      0.9033      0.9699    
        1.023       1.066       1.102       1.132       1.158       1.179       1.196       1.208       1.217       1.222    
   7    1.482       1.479       1.474       1.466       1.457       1.446       1.437       1.431       1.425       1.417    
        1.404       1.380       1.343       1.292       1.228       1.150       1.055      0.9324      0.7629      0.5026    
        0.000       0.000       0.000       0.000      0.4715      0.6798      0.8047      0.8905      0.9567       1.012    
        1.058       1.097       1.128       1.155       1.178       1.198       1.213       1.225       1.233       1.237    
   8    1.487       1.484       1.478       1.470       1.461       1.450       1.440       1.433       1.427       1.419    
        1.407       1.387       1.354       1.310       1.254       1.187       1.109       1.013      0.8870      0.6705    
        0.000       0.000       0.000      0.5093      0.7099      0.8206      0.8979      0.9578       1.009       1.054    
        1.094       1.129       1.157       1.181       1.201       1.218       1.232       1.242       1.250       1.254    
   9    1.495       1.490       1.484       1.476       1.466       1.456       1.445       1.437       1.429       1.422    
        1.412       1.396       1.369       1.330       1.282       1.225       1.160       1.086      0.9981      0.8845    
       0.7245      0.6793      0.6863      0.7886      0.8671      0.9271      0.9766       1.020       1.059       1.097    
        1.131       1.161       1.187       1.208       1.225       1.240       1.252       1.261       1.268       1.271    
  10    1.503       1.498       1.491       1.482       1.472       1.462       1.451       1.442       1.433       1.426    
        1.417       1.405       1.384       1.352       1.311       1.263       1.209       1.150       1.087       1.021    
       0.9549      0.9221      0.9185      0.9453      0.9787       1.012       1.045       1.076       1.107       1.138    
        1.167       1.193       1.216       1.235       1.250       1.263       1.273       1.281       1.287       1.290    
  11    1.512       1.507       1.500       1.489       1.479       1.469       1.458       1.447       1.438       1.430    
        1.422       1.412       1.397       1.373       1.339       1.298       1.253       1.206       1.159       1.113    
        1.074       1.050       1.042       1.049       1.064       1.083       1.105       1.128       1.153       1.178    
        1.203       1.225       1.246       1.263       1.276       1.287       1.295       1.302       1.307       1.309    
  12    1.522       1.517       1.509       1.499       1.487       1.476       1.465       1.454       1.444       1.435    
        1.427       1.419       1.408       1.390       1.364       1.331       1.293       1.255       1.217       1.183    
        1.154       1.135       1.126       1.126       1.132       1.144       1.159       1.175       1.195       1.216    
        1.238       1.257       1.275       1.290       1.301       1.311       1.318       1.323       1.327       1.329    
  13    1.531       1.527       1.519       1.508       1.495       1.483       1.472       1.461       1.450       1.440    
        1.432       1.425       1.416       1.403       1.384       1.358       1.328       1.296       1.265       1.238    
        1.215       1.199       1.190       1.187       1.190       1.197       1.207       1.219       1.233       1.251    
        1.270       1.288       1.304       1.316       1.326       1.334       1.339       1.344       1.346       1.348    
  14    1.540       1.536       1.528       1.516       1.503       1.490       1.479       1.467       1.456       1.445    
        1.436       1.429       1.422       1.413       1.400       1.381       1.357       1.331       1.305       1.283    
        1.264       1.251       1.242       1.239       1.239       1.243       1.250       1.259       1.270       1.284    
        1.299       1.315       1.329       1.341       1.349       1.355       1.360       1.363       1.365       1.367    
  15    1.547       1.544       1.536       1.524       1.510       1.496       1.484       1.473       1.461       1.450    
        1.440       1.433       1.427       1.420       1.411       1.398       1.380       1.359       1.338       1.320    
        1.305       1.293       1.286       1.282       1.282       1.284       1.289       1.295       1.303       1.313    
        1.326       1.340       1.353       1.364       1.371       1.375       1.379       1.381       1.383       1.384    
  16    1.554       1.550       1.542       1.531       1.516       1.502       1.489       1.477       1.465       1.454    
        1.444       1.436       1.430       1.425       1.419       1.410       1.397       1.381       1.365       1.350    
        1.338       1.329       1.323       1.319       1.319       1.320       1.324       1.328       1.334       1.342    
        1.352       1.364       1.376       1.386       1.391       1.395       1.397       1.398       1.399       1.401    
  17    1.559       1.556       1.548       1.536       1.521       1.506       1.493       1.481       1.469       1.457    
        1.446       1.438       1.433       1.428       1.424       1.418       1.409       1.398       1.386       1.375    
        1.366       1.359       1.354       1.351       1.351       1.352       1.354       1.358       1.363       1.368    
        1.376       1.387       1.398       1.407       1.411       1.413       1.414       1.415       1.415       1.416    
  18    1.565       1.561       1.553       1.540       1.525       1.510       1.497       1.484       1.471       1.459    
        1.448       1.440       1.434       1.431       1.428       1.424       1.418       1.411       1.403       1.395    
        1.389       1.384       1.381       1.379       1.379       1.380       1.382       1.385       1.389       1.393    
        1.399       1.409       1.419       1.426       1.429       1.430       1.430       1.430       1.429       1.430    
  19    1.570       1.566       1.557       1.543       1.528       1.513       1.500       1.486       1.473       1.461    
        1.451       1.442       1.436       1.432       1.430       1.428       1.424       1.420       1.416       1.412    
        1.408       1.405       1.404       1.403       1.404       1.405       1.407       1.410       1.413       1.416    
        1.421       1.429       1.437       1.444       1.447       1.447       1.444       1.442       1.440       1.440    
  20    1.576       1.571       1.561       1.547       1.531       1.516       1.503       1.490       1.478       1.466    
        1.456       1.446       1.438       1.434       1.432       1.430       1.429       1.428       1.427       1.425    
        1.424       1.424       1.424       1.424       1.426       1.427       1.430       1.432       1.435       1.437    
        1.441       1.448       1.456       1.462       1.465       1.464       1.455       1.450       1.447       1.446    
  21    1.582       1.576       1.565       1.551       1.534       1.520       1.507       1.495       1.482       1.471    
        1.461       1.451       1.442       1.436       1.434       1.433       1.433       1.434       1.436       1.437    
        1.439       1.440       1.441       1.443       1.445       1.447       1.450       1.452       1.454       1.457    
        1.460       1.467       1.474       1.479       1.484       1.487      1.0000E+30  1.0000E+30  1.0000E+30  1.0000E+30
  22    1.589       1.582       1.571       1.556       1.541       1.527       1.513       1.500       1.487       1.475    
        1.466       1.456       1.447       1.440       1.436       1.435       1.437       1.442       1.446       1.450    
        1.454       1.455       1.457       1.459       1.462       1.465       1.468       1.470       1.473       1.475    
        1.478       1.484       1.490       1.496       1.501       1.505      1.0000E+30  1.0000E+30  1.0000E+30  1.0000E+30
  23    1.597       1.590       1.579       1.565       1.550       1.536       1.521       1.505       1.491       1.479    
[...]
       0.5571      0.5226      0.5057      0.5056      0.5207      0.5486      0.5840      0.6222      0.6599      0.6958    
       0.7288      0.7586      0.7851      0.8083      0.8280      0.8443      0.8573      0.8671      0.8735      0.8767    
   7    1.199       1.195       1.188       1.178       1.163       1.143       1.130       1.130       1.130       1.130    
        1.130       1.114       1.077       1.032      0.9792      0.9192      0.8538      0.7852      0.7166      0.6532    
       0.6012      0.5668      0.5505      0.5511      0.5662      0.5910      0.6213      0.6538      0.6865      0.7179    
       0.7472      0.7742      0.7984      0.8197      0.8380      0.8532      0.8655      0.8746      0.8807      0.8837    
   8    1.203       1.200       1.193       1.182       1.168       1.147       1.130       1.130       1.130       1.130    
        1.130       1.120       1.088       1.046      0.9969      0.9424      0.8834      0.8218      0.7601      0.7020    
       0.6524      0.6192      0.6030      0.6031      0.6148      0.6344      0.6588      0.6856      0.7132      0.7403    
       0.7661      0.7902      0.8122      0.8317      0.8486      0.8628      0.8742      0.8828      0.8885      0.8914    
   9    1.208       1.205       1.198       1.189       1.175       1.158       1.139       1.130       1.130       1.130    
        1.130       1.130       1.106       1.064       1.019      0.9686      0.9151      0.8598      0.8048      0.7531    
       0.7089      0.6774      0.6601      0.6562      0.6625      0.6761      0.6946      0.7160      0.7388      0.7620    
       0.7847      0.8062      0.8260      0.8439      0.8596      0.8728      0.8834      0.8914      0.8968      0.8995    
  10    1.213       1.210       1.204       1.196       1.184       1.169       1.153       1.137       1.130       1.130    
        1.130       1.130       1.119       1.085       1.043      0.9967      0.9476      0.8974      0.8479      0.8018    
       0.7620      0.7319      0.7130      0.7048      0.7057      0.7136      0.7267      0.7434      0.7623      0.7821    
       0.8021      0.8215      0.8396      0.8561      0.8705      0.8828      0.8928      0.9003      0.9054      0.9079    
  11    1.219       1.216       1.211       1.203       1.192       1.179       1.163       1.144       1.130       1.130    
        1.130       1.130       1.130       1.113       1.071       1.026      0.9796      0.9331      0.8876      0.8453    
       0.8082      0.7787      0.7579      0.7460      0.7421      0.7452      0.7539      0.7668      0.7825      0.7999    
       0.8179      0.8356      0.8524      0.8677      0.8813      0.8929      0.9022      0.9093      0.9140      0.9164    
  12    1.225       1.222       1.217       1.210       1.200       1.188       1.173       1.157       1.139       1.130    
        1.130       1.130       1.130       1.130       1.100       1.055       1.010      0.9660      0.9230      0.8827    
       0.8469      0.8169      0.7940      0.7785      0.7705      0.7696      0.7748      0.7851      0.7989      0.8148    
       0.8316      0.8483      0.8642      0.8788      0.8917      0.9026      0.9115      0.9181      0.9226      0.9248    
  13    1.231       1.228       1.224       1.217       1.207       1.196       1.182       1.167       1.151       1.136    
        1.130       1.130       1.130       1.130       1.117       1.081       1.039      0.9958      0.9538      0.9142    
       0.8781      0.8468      0.8211      0.8020      0.7900      0.7857      0.7886      0.7976      0.8108      0.8264    
       0.8430      0.8595      0.8751      0.8892      0.9016      0.9121      0.9205      0.9268      0.9310      0.9331    
  14    1.237       1.234       1.230       1.223       1.214       1.203       1.190       1.176       1.160       1.142    
        1.130       1.130       1.130       1.130       1.130       1.111       1.067       1.023      0.9801      0.9400    
       0.9027      0.8690      0.8397      0.8161      0.7997      0.7921      0.7940      0.8034      0.8178      0.8346    
       0.8521      0.8691      0.8849      0.8990      0.9111      0.9212      0.9292      0.9352      0.9391      0.9411    
  15    1.243       1.240       1.236       1.229       1.220       1.209       1.197       1.183       1.168       1.151    
        1.136       1.130       1.130       1.130       1.130       1.130       1.096       1.046       1.002      0.9608    
       0.9215      0.8845      0.8502      0.8205      0.7980      0.7866      0.7890      0.8016      0.8196      0.8396    
       0.8593      0.8776      0.8940      0.9083      0.9202      0.9300      0.9376      0.9432      0.9468      0.9486    
  16    1.248       1.246       1.241       1.235       1.226       1.215       1.202       1.188       1.173       1.157    
        1.139       1.130       1.130       1.130       1.130       1.130       1.106       1.061       1.019      0.9772    
       0.9358      0.8945      0.8537      0.8148      0.7821      0.7642      0.7708      0.7915      0.8169      0.8421    
       0.8653      0.8855      0.9029      0.9174      0.9292      0.9385      0.9456      0.9506      0.9539      0.9555    
  17    1.254       1.251       1.247       1.240       1.231       1.220       1.207       1.192       1.176       1.159    
        1.141       1.130       1.130       1.130       1.130       1.130       1.112       1.074       1.033      0.9911    
       0.9475      0.9015      0.8522      0.7996      0.7476      0.7128      0.7347      0.7732      0.8111      0.8440    
       0.8714      0.8939      0.9122      0.9268      0.9383      0.9469      0.9531      0.9574      0.9602      0.9615    
  18    1.259       1.256       1.252       1.244       1.235       1.223       1.210       1.194       1.178       1.160    
        1.141       1.130       1.130       1.130       1.130       1.130       1.120       1.086       1.046       1.004    
       0.9589      0.9089      0.8507      0.7794      0.6898      0.5976      0.6760      0.7511      0.8070      0.8484    
       0.8797      0.9038      0.9226      0.9370      0.9477      0.9552      0.9601      0.9634      0.9655      0.9665    
  19    1.264       1.261       1.256       1.249       1.239       1.226       1.212       1.195       1.178       1.159    
        1.140       1.130       1.130       1.130       1.130       1.130       1.130       1.103       1.060       1.018    
       0.9726      0.9213      0.8584      0.7714      0.6249      0.2953      0.6105      0.7422      0.8136      0.8595    
       0.8922      0.9165      0.9348      0.9484      0.9579      0.9638      0.9664      0.9682      0.9694      0.9701    
  20    1.269       1.267       1.261       1.253       1.242       1.229       1.213       1.195       1.175       1.155    
        1.137       1.130       1.130       1.130       1.130       1.130       1.130       1.110       1.071       1.032    
       0.9896      0.9421      0.8858      0.8156      0.7267      0.6344      0.7122      0.7863      0.8410      0.8807    
       0.9103      0.9325      0.9492      0.9614      0.9694      0.9731      0.9710      0.9710      0.9716      0.9721    
  21    1.275       1.272       1.266       1.257       1.245       1.231       1.213       1.193       1.170       1.146    
        1.131       1.131       1.130       1.130       1.130       1.130       1.130       1.114       1.081       1.046    
        1.009      0.9685      0.9230      0.8728      0.8218      0.7869      0.8075      0.8440      0.8792      0.9089    
       0.9327      0.9514      0.9656      0.9760      0.9828      0.9861      1.0000E+30  1.0000E+30  1.0000E+30  1.0000E+30
  22    1.281       1.278       1.271       1.262       1.249       1.233       1.213       1.190       1.164       1.140    
        1.131       1.131       1.131       1.130       1.130       1.130       1.130       1.117       1.090       1.061    
        1.030      0.9966      0.9615      0.9261      0.8948      0.8765      0.8811      0.8984      0.9196      0.9398    
       0.9575      0.9720      0.9834      0.9917      0.9972      0.9998      1.0000E+30  1.0000E+30  1.0000E+30  1.0000E+30
  23    1.287       1.284       1.277       1.267       1.253       1.235       1.213       1.186       1.153       1.131    
        1.131       1.131       1.131       1.131       1.130       1.130       1.130       1.120       1.098       1.075    
        1.050       1.024      0.9972      0.9719      0.9510      0.9386      0.9378      0.9456      0.9576      0.9705    
       0.9827      0.9931       1.002       1.008       1.012       1.014      1.0000E+30  1.0000E+30  1.0000E+30  1.0000E+30
  24    1.295       1.291       1.284       1.273       1.259       1.239       1.214       1.184       1.149       1.131    
        1.131       1.131       1.131       1.131       1.131       1.130       1.130       1.123       1.106       1.088    
        1.069       1.049       1.029       1.010      0.9953      0.9858      0.9829      0.9856      0.9917      0.9992    
        1.007       1.014       1.019       1.024       1.026       1.028      1.0000E+30  1.0000E+30  1.0000E+30  1.0000E+30
  25    1.303       1.299       1.292       1.281       1.266       1.245       1.218       1.183       1.144       1.131    
        1.131       1.131       1.131       1.131       1.131       1.131       1.131       1.126       1.114       1.100    
        1.086       1.071       1.056       1.042       1.031       1.023       1.020       1.019       1.022       1.025    
        1.029       1.033       1.036       1.038       1.040       1.040      1.0000E+30  1.0000E+30  1.0000E+30  1.0000E+30
  26    1.312       1.308       1.302       1.291       1.276       1.255       1.227       1.182       1.131       1.131    
        1.131       1.131       1.131       1.131       1.131       1.131       1.131       1.128       1.120       1.111    
        1.101       1.090       1.080       1.069       1.061       1.054       1.050       1.048       1.047       1.048    
        1.049       1.050       1.051       1.052       1.051       1.050      1.0000E+30  1.0000E+30  1.0000E+30  1.0000E+30
  27    1.322       1.318       1.312       1.302       1.288       1.269       1.248       1.232      1.0000E+30  1.0000E+30
       1.0000E+30   1.131       1.131       1.131       1.131       1.131       1.131       1.130       1.126       1.121    
        1.114       1.107       1.100       1.092       1.086       1.080       1.076       1.072       1.070       1.068    
        1.067       1.066       1.065       1.063       1.062       1.057      1.0000E+30  1.0000E+30  1.0000E+30  1.0000E+30
  28    1.332       1.329       1.324       1.316       1.302       1.283       1.262       1.248      1.0000E+30  1.0000E+30
       1.0000E+30   1.131       1.131       1.131       1.131       1.131       1.131       1.131       1.130       1.128    
        1.126       1.122       1.117       1.112       1.107       1.102       1.097       1.093       1.089       1.085    
        1.081       1.078       1.075       1.073       1.072      1.0000E+30  1.0000E+30  1.0000E+30  1.0000E+30  1.0000E+30
  29    1.342       1.340       1.337       1.331       1.320       1.295       1.280      1.0000E+30  1.0000E+30  1.0000E+30
       1.0000E+30   1.131       1.131       1.131       1.131       1.131       1.131       1.131       1.133       1.135    
        1.136       1.135       1.133       1.129       1.125       1.121       1.116       1.111       1.106       1.100    
        1.093       1.087       1.083       1.080       1.077      1.0000E+30  1.0000E+30  1.0000E+30  1.0000E+30  1.0000E+30
  30    1.352       1.351       1.349       1.349       1.351      1.0000E+30  1.0000E+30  1.0000E+30  1.0000E+30  1.0000E+30
        1.131       1.131       1.131       1.131       1.131       1.131       1.131       1.131       1.134       1.139    
        1.146       1.147       1.146       1.144       1.141       1.137       1.133       1.128       1.121       1.112    
        1.100       1.093       1.088       1.085      1.0000E+30  1.0000E+30  1.0000E+30  1.0000E+30  1.0000E+30  1.0000E+30
  31    1.359       1.359       1.359       1.361       1.366      1.0000E+30  1.0000E+30  1.0000E+30  1.0000E+30  1.0000E+30
       1.0000E+30   1.131       1.131       1.131       1.131       1.131      1.0000E+30  1.0000E+30  1.0000E+30  1.0000E+30
        1.159       1.160       1.159       1.157       1.155       1.151       1.148       1.143       1.137       1.126    
       1.0000E+30  1.0000E+30  1.0000E+30  1.0000E+30  1.0000E+30  1.0000E+30  1.0000E+30  1.0000E+30  1.0000E+30  1.0000E+30
  32    1.365       1.365       1.365       1.365       1.366      1.0000E+30  1.0000E+30  1.0000E+30  1.0000E+30  1.0000E+30
       1.0000E+30  1.0000E+30   1.131       1.131       1.131      1.0000E+30  1.0000E+30  1.0000E+30  1.0000E+30  1.0000E+30
        1.170       1.170       1.170       1.168       1.167       1.164       1.161       1.158       1.155      1.0000E+30
       1.0000E+30  1.0000E+30  1.0000E+30  1.0000E+30  1.0000E+30  1.0000E+30  1.0000E+30  1.0000E+30  1.0000E+30  1.0000E+30
  33    1.368       1.367       1.366       1.366       1.366      1.0000E+30  1.0000E+30  1.0000E+30  1.0000E+30  1.0000E+30
       1.0000E+30  1.0000E+30  1.0000E+30   1.131       1.131      1.0000E+30  1.0000E+30  1.0000E+30  1.0000E+30  1.0000E+30
        1.178       1.178       1.179       1.178       1.177       1.175       1.172       1.169       1.167      1.0000E+30
       1.0000E+30  1.0000E+30  1.0000E+30  1.0000E+30  1.0000E+30  1.0000E+30  1.0000E+30  1.0000E+30  1.0000E+30  1.0000E+30
  34    1.370       1.368       1.366       1.366       1.366      1.0000E+30  1.0000E+30  1.0000E+30  1.0000E+30  1.0000E+30
       1.0000E+30  1.0000E+30  1.0000E+30  1.0000E+30  1.0000E+30  1.0000E+30  1.0000E+30  1.0000E+30  1.0000E+30  1.0000E+30
        1.183       1.185       1.186       1.186       1.185       1.183       1.181       1.178       1.174      1.0000E+30
       1.0000E+30  1.0000E+30  1.0000E+30  1.0000E+30  1.0000E+30  1.0000E+30  1.0000E+30  1.0000E+30  1.0000E+30  1.0000E+30
  35    1.370       1.368       1.366       1.366       1.366      1.0000E+30  1.0000E+30  1.0000E+30  1.0000E+30  1.0000E+30
       1.0000E+30  1.0000E+30  1.0000E+30  1.0000E+30  1.0000E+30  1.0000E+30  1.0000E+30  1.0000E+30  1.0000E+30  1.0000E+30
       1.0000E+30   1.191       1.191       1.191       1.191       1.190       1.188       1.187      1.0000E+30  1.0000E+30
       1.0000E+30  1.0000E+30  1.0000E+30  1.0000E+30  1.0000E+30  1.0000E+30  1.0000E+30  1.0000E+30  1.0000E+30  1.0000E+30
  36   1.0000E+30  1.0000E+30  1.0000E+30   1.366      1.0000E+30  1.0000E+30  1.0000E+30  1.0000E+30  1.0000E+30  1.0000E+30
       1.0000E+30  1.0000E+30  1.0000E+30  1.0000E+30  1.0000E+30  1.0000E+30  1.0000E+30  1.0000E+30  1.0000E+30  1.0000E+30
       1.0000E+30   1.194       1.194       1.195       1.195       1.194       1.193       1.191      1.0000E+30  1.0000E+30
       1.0000E+30  1.0000E+30  1.0000E+30  1.0000E+30  1.0000E+30  1.0000E+30  1.0000E+30  1.0000E+30  1.0000E+30  1.0000E+30
  37   1.0000E+30  1.0000E+30  1.0000E+30  1.0000E+30  1.0000E+30  1.0000E+30  1.0000E+30  1.0000E+30  1.0000E+30  1.0000E+30
       1.0000E+30  1.0000E+30  1.0000E+30  1.0000E+30  1.0000E+30  1.0000E+30  1.0000E+30  1.0000E+30  1.0000E+30  1.0000E+30
       1.0000E+30  1.0000E+30  1.0000E+30   1.197       1.197       1.197       1.196      1.0000E+30  1.0000E+30  1.0000E+30
       1.0000E+30  1.0000E+30  1.0000E+30  1.0000E+30  1.0000E+30  1.0000E+30  1.0000E+30  1.0000E+30  1.0000E+30  1.0000E+30
  38   1.0000E+30  1.0000E+30  1.0000E+30  1.0000E+30  1.0000E+30  1.0000E+30  1.0000E+30  1.0000E+30  1.0000E+30  1.0000E+30
       1.0000E+30  1.0000E+30  1.0000E+30  1.0000E+30  1.0000E+30  1.0000E+30  1.0000E+30  1.0000E+30  1.0000E+30  1.0000E+30
       1.0000E+30  1.0000E+30  1.0000E+30  1.0000E+30  1.0000E+30  1.0000E+30  1.0000E+30  1.0000E+30  1.0000E+30  1.0000E+30
       1.0000E+30  1.0000E+30  1.0000E+30  1.0000E+30  1.0000E+30  1.0000E+30  1.0000E+30  1.0000E+30  1.0000E+30  1.0000E+30
  39   1.0000E+30  1.0000E+30  1.0000E+30  1.0000E+30  1.0000E+30  1.0000E+30  1.0000E+30  1.0000E+30  1.0000E+30  1.0000E+30
       1.0000E+30  1.0000E+30  1.0000E+30  1.0000E+30  1.0000E+30  1.0000E+30  1.0000E+30  1.0000E+30  1.0000E+30  1.0000E+30
       1.0000E+30  1.0000E+30  1.0000E+30  1.0000E+30  1.0000E+30  1.0000E+30  1.0000E+30  1.0000E+30  1.0000E+30  1.0000E+30
       1.0000E+30  1.0000E+30  1.0000E+30  1.0000E+30  1.0000E+30  1.0000E+30  1.0000E+30  1.0000E+30  1.0000E+30  1.0000E+30
  40   1.0000E+30  1.0000E+30  1.0000E+30  1.0000E+30  1.0000E+30  1.0000E+30  1.0000E+30  1.0000E+30  1.0000E+30  1.0000E+30
       1.0000E+30  1.0000E+30  1.0000E+30  1.0000E+30  1.0000E+30  1.0000E+30  1.0000E+30  1.0000E+30  1.0000E+30  1.0000E+30
       1.0000E+30  1.0000E+30  1.0000E+30  1.0000E+30  1.0000E+30  1.0000E+30  1.0000E+30  1.0000E+30  1.0000E+30  1.0000E+30
       1.0000E+30  1.0000E+30  1.0000E+30  1.0000E+30  1.0000E+30  1.0000E+30  1.0000E+30  1.0000E+30  1.0000E+30  1.0000E+30

 HEAD WILL BE SAVED ON UNIT 1018 AT END OF TIME STEP   72, STRESS PERIOD    2


  VOLUME BUDGET FOR ENTIRE MODEL AT END OF TIME STEP   72, STRESS PERIOD   2
  ---------------------------------------------------------------------------------------------------

     CUMULATIVE VOLUME      L**3       RATES FOR THIS TIME STEP      L**3/T          PACKAGE NAME    
     ------------------                 ------------------------                     ----------------

           IN:                                      IN:
           ---                                      ---
              STO-SS =         330.5781                STO-SS =       1.0284E-05     STORAGE         
              STO-SY =      677591.5313                STO-SY =       1.9427E-02     STORAGE         
                 WEL =           0.0000                   WEL =           0.0000     WEL             
                 RCH =     2822400.0912                   RCH =       8.9436E-02     RCH_0           
                 CHD =           0.0000                   CHD =           0.0000     CHD_0           

            TOTAL IN =     3500322.2005              TOTAL IN =           0.1089

          OUT:                                     OUT:
          ----                                     ----
              STO-SS =       1.5884E-02                STO-SS =           0.0000     STORAGE         
              STO-SY =           0.1286                STO-SY =           0.0000     STORAGE         
                 WEL =     1262304.0000                   WEL =       4.0000E-02     WEL             
                 RCH =           0.0000                   RCH =           0.0000     RCH_0           
                 CHD =     2437815.7372                   CHD =       6.8971E-02     CHD_0           

           TOTAL OUT =     3700119.8817             TOTAL OUT =           0.1090

            IN - OUT =     -199797.6811              IN - OUT =      -9.7144E-05

 PERCENT DISCREPANCY =          -5.55     PERCENT DISCREPANCY =          -0.09




         TIME SUMMARY AT END OF TIME STEP   72 IN STRESS PERIOD    2
                    SECONDS     MINUTES      HOURS       DAYS        YEARS
                    -----------------------------------------------------------
   TIME STEP LENGTH 2.87188E+06  47865.      797.74      33.239     9.10043E-02
 STRESS PERIOD TIME 3.15576E+07 5.25960E+05  8766.0      365.25      1.0000    
         TOTAL TIME 3.15576E+07 5.25960E+05  8766.0      365.25      1.0000    


end timestep

